13
* (null), Energy   -1000.0000000
C     1.372793    0.529851   -0.015036   -0.006438    0.021519    0.250496
C     1.302724   -0.794210    0.095800    0.004382   -0.013096   -0.154399
N    -0.008640   -1.463020    0.118827    0.000559   -0.003422   -0.036263
C    -1.330555   -0.610659    0.008144   -0.000633    0.001943    0.022632
N    -1.080705    0.709657   -0.097399   -0.000006    0.000245    0.000454
C     0.172593    1.398876   -0.122183    0.001179   -0.003967   -0.045765
O    -2.344242   -1.219751    0.031049    0.000167   -0.000463   -0.004660
O     0.201841    2.589695   -0.223265   -0.000403    0.001139    0.014160
H     2.156844   -1.471062    0.176152   -0.028196    0.094570    1.097598
H    -0.124198   -2.019917    0.984598    0.037913    0.067939    0.013459
H    -1.907129    1.310644   -0.173530    0.000850   -0.001888   -0.025819
H     2.338608    1.040183   -0.032851    0.043400   -0.138267   -1.630890
H    -0.080594   -2.162817   -0.641747   -0.039912   -0.065170    0.023046
13
* Frequency(22)  998.0759
C     1.372061    0.532297    0.013431   -0.006438    0.021519    0.250496
C     1.303222   -0.795698    0.078254    0.004382   -0.013096   -0.154399
N    -0.008577   -1.463409    0.114706    0.000559   -0.003422   -0.036263
C    -1.330627   -0.610438    0.010716   -0.000633    0.001943    0.022632
N    -1.080706    0.709685   -0.097347   -0.000006    0.000245    0.000454
C     0.172727    1.398425   -0.127384    0.001179   -0.003967   -0.045765
O    -2.344223   -1.219803    0.030519    0.000167   -0.000463   -0.004660
O     0.201795    2.589825   -0.221655   -0.000403    0.001139    0.014160
H     2.153639   -1.460314    0.300888   -0.028196    0.094570    1.097598
H    -0.119889   -2.012196    0.986128    0.037913    0.067939    0.013459
H    -1.907032    1.310429   -0.176464    0.000850   -0.001888   -0.025819
H     2.343540    1.024469   -0.218194    0.043400   -0.138267   -1.630890
H    -0.085129   -2.170223   -0.639128   -0.039912   -0.065170    0.023046
13
* Frequency(22)  998.0759
C     1.371409    0.534477    0.038814   -0.006438    0.021519    0.250496
C     1.303666   -0.797025    0.062608    0.004382   -0.013096   -0.154399
N    -0.008520   -1.463756    0.111032    0.000559   -0.003422   -0.036263
C    -1.330692   -0.610242    0.013010   -0.000633    0.001943    0.022632
N    -1.080706    0.709710   -0.097301   -0.000006    0.000245    0.000454
C     0.172847    1.398023   -0.132021    0.001179   -0.003967   -0.045765
O    -2.344206   -1.219850    0.030047    0.000167   -0.000463   -0.004660
O     0.201755    2.589940   -0.220221   -0.000403    0.001139    0.014160
H     2.150782   -1.450732    0.412107   -0.028196    0.094570    1.097598
H    -0.116047   -2.005312    0.987492    0.037913    0.067939    0.013459
H    -1.906946    1.310238   -0.179080    0.000850   -0.001888   -0.025819
H     2.347937    1.010459   -0.383451    0.043400   -0.138267   -1.630890
H    -0.089174   -2.176827   -0.636793   -0.039912   -0.065170    0.023046
13
* Frequency(22)  998.0759
C     1.370906    0.536156    0.058361   -0.006438    0.021519    0.250496
C     1.304008   -0.798047    0.050560    0.004382   -0.013096   -0.154399
N    -0.008476   -1.464023    0.108202    0.000559   -0.003422   -0.036263
C    -1.330741   -0.610090    0.014776   -0.000633    0.001943    0.022632
N    -1.080707    0.709729   -0.097266   -0.000006    0.000245    0.000454
C     0.172939    1.397713   -0.135592    0.001179   -0.003967   -0.045765
O    -2.344193   -1.219887    0.029683    0.000167   -0.000463   -0.004660
O     0.201723    2.590029   -0.219116   -0.000403    0.001139    0.014160
H     2.148582   -1.443352    0.497757   -0.028196    0.094570    1.097598
H    -0.113089   -2.000010    0.988542    0.037913    0.067939    0.013459
H    -1.906880    1.310090   -0.181095    0.000850   -0.001888   -0.025819
H     2.351324    0.999669   -0.510716    0.043400   -0.138267   -1.630890
H    -0.092288   -2.181912   -0.634994   -0.039912   -0.065170    0.023046
13
* Frequency(22)  998.0759
C     1.370608    0.537152    0.069955   -0.006438    0.021519    0.250496
C     1.304211   -0.798653    0.043414    0.004382   -0.013096   -0.154399
N    -0.008450   -1.464181    0.106524    0.000559   -0.003422   -0.036263
C    -1.330770   -0.610000    0.015823   -0.000633    0.001943    0.022632
N    -1.080707    0.709740   -0.097245   -0.000006    0.000245    0.000454
C     0.172993    1.397530   -0.137711    0.001179   -0.003967   -0.045765
O    -2.344185   -1.219908    0.029468    0.000167   -0.000463   -0.004660
O     0.201705    2.590082   -0.218460   -0.000403    0.001139    0.014160
H     2.147277   -1.438975    0.548556   -0.028196    0.094570    1.097598
H    -0.111334   -1.996866    0.989165    0.037913    0.067939    0.013459
H    -1.906840    1.310003   -0.182290    0.000850   -0.001888   -0.025819
H     2.353333    0.993270   -0.586196    0.043400   -0.138267   -1.630890
H    -0.094135   -2.184929   -0.633928   -0.039912   -0.065170    0.023046
13
* Frequency(22)  998.0759
C     1.370547    0.537357    0.072338   -0.006438    0.021519    0.250496
C     1.304253   -0.798778    0.041945    0.004382   -0.013096   -0.154399
N    -0.008445   -1.464214    0.106179    0.000559   -0.003422   -0.036263
C    -1.330776   -0.609982    0.016039   -0.000633    0.001943    0.022632
N    -1.080707    0.709742   -0.097240   -0.000006    0.000245    0.000454
C     0.173004    1.397492   -0.138146    0.001179   -0.003967   -0.045765
O    -2.344184   -1.219912    0.029423    0.000167   -0.000463   -0.004660
O     0.201701    2.590093   -0.218326   -0.000403    0.001139    0.014160
H     2.147009   -1.438075    0.558999   -0.028196    0.094570    1.097598
H    -0.110973   -1.996219    0.989293    0.037913    0.067939    0.013459
H    -1.906832    1.309985   -0.182536    0.000850   -0.001888   -0.025819
H     2.353746    0.991955   -0.601713    0.043400   -0.138267   -1.630890
H    -0.094515   -2.185549   -0.633709   -0.039912   -0.065170    0.023046
13
* Frequency(22)  998.0759
C     1.370729    0.536748    0.065253   -0.006438    0.021519    0.250496
C     1.304129   -0.798407    0.046312    0.004382   -0.013096   -0.154399
N    -0.008461   -1.464117    0.107204    0.000559   -0.003422   -0.036263
C    -1.330758   -0.610037    0.015399   -0.000633    0.001943    0.022632
N    -1.080707    0.709735   -0.097253   -0.000006    0.000245    0.000454
C     0.172971    1.397604   -0.136852    0.001179   -0.003967   -0.045765
O    -2.344188   -1.219899    0.029555    0.000167   -0.000463   -0.004660
O     0.201712    2.590060   -0.218726   -0.000403    0.001139    0.014160
H     2.147806   -1.440750    0.527955   -0.028196    0.094570    1.097598
H    -0.112046   -1.998141    0.988912    0.037913    0.067939    0.013459
H    -1.906856    1.310038   -0.181805    0.000850   -0.001888   -0.025819
H     2.352518    0.995865   -0.555585    0.043400   -0.138267   -1.630890
H    -0.093386   -2.183705   -0.634360   -0.039912   -0.065170    0.023046
13
* Frequency(22)  998.0759
C     1.371135    0.535392    0.049467   -0.006438    0.021519    0.250496
C     1.303852   -0.797582    0.056042    0.004382   -0.013096   -0.154399
N    -0.008496   -1.463902    0.109489    0.000559   -0.003422   -0.036263
C    -1.330718   -0.610159    0.013972   -0.000633    0.001943    0.022632
N    -1.080707    0.709720   -0.097282   -0.000006    0.000245    0.000454
C     0.172897    1.397854   -0.133968    0.001179   -0.003967   -0.045765
O    -2.344199   -1.219870    0.029849    0.000167   -0.000463   -0.004660
O     0.201738    2.589989   -0.219618   -0.000403    0.001139    0.014160
H     2.149583   -1.446710    0.458787   -0.028196    0.094570    1.097598
H    -0.114435   -2.002422    0.988064    0.037913    0.067939    0.013459
H    -1.906910    1.310157   -0.180178    0.000850   -0.001888   -0.025819
H     2.349783    1.004579   -0.452811    0.043400   -0.138267   -1.630890
H    -0.090871   -2.179599   -0.635813   -0.039912   -0.065170    0.023046
13
* Frequency(22)  998.0759
C     1.371720    0.533436    0.026692   -0.006438    0.021519    0.250496
C     1.303454   -0.796391    0.070080    0.004382   -0.013096   -0.154399
N    -0.008547   -1.463590    0.112786    0.000559   -0.003422   -0.036263
C    -1.330661   -0.610336    0.011915   -0.000633    0.001943    0.022632
N    -1.080706    0.709698   -0.097323   -0.000006    0.000245    0.000454
C     0.172790    1.398215   -0.129806    0.001179   -0.003967   -0.045765
O    -2.344214   -1.219828    0.030273    0.000167   -0.000463   -0.004660
O     0.201774    2.589885   -0.220906   -0.000403    0.001139    0.014160
H     2.152147   -1.455308    0.358991   -0.028196    0.094570    1.097598
H    -0.117882   -2.008599    0.986840    0.037913    0.067939    0.013459
H    -1.906987    1.310329   -0.177831    0.000850   -0.001888   -0.025819
H     2.345837    1.017150   -0.304528    0.043400   -0.138267   -1.630890
H    -0.087242   -2.173673   -0.637908   -0.039912   -0.065170    0.023046
13
* Frequency(22)  998.0759
C     1.372422    0.531091   -0.000606   -0.006438    0.021519    0.250496
C     1.302976   -0.794964    0.086906    0.004382   -0.013096   -0.154399
N    -0.008608   -1.463218    0.116738    0.000559   -0.003422   -0.036263
C    -1.330592   -0.610547    0.009448   -0.000633    0.001943    0.022632
N    -1.080705    0.709671   -0.097372   -0.000006    0.000245    0.000454
C     0.172661    1.398647   -0.124819    0.001179   -0.003967   -0.045765
O    -2.344232   -1.219778    0.030780    0.000167   -0.000463   -0.004660
O     0.201818    2.589761   -0.222449   -0.000403    0.001139    0.014160
H     2.155219   -1.465614    0.239382   -0.028196    0.094570    1.097598
H    -0.122013   -2.016003    0.985374    0.037913    0.067939    0.013459
H    -1.907080    1.310535   -0.175017    0.000850   -0.001888   -0.025819
H     2.341108    1.032217   -0.126804    0.043400   -0.138267   -1.630890
H    -0.082893   -2.166571   -0.640420   -0.039912   -0.065170    0.023046
13
* Frequency(22)  998.0759
C     1.373164    0.528611   -0.029467   -0.006438    0.021519    0.250496
C     1.302471   -0.793455    0.104695    0.004382   -0.013096   -0.154399
N    -0.008672   -1.462823    0.120916    0.000559   -0.003422   -0.036263
C    -1.330519   -0.610771    0.006841   -0.000633    0.001943    0.022632
N    -1.080705    0.709643   -0.097425   -0.000006    0.000245    0.000454
C     0.172525    1.399104   -0.119546    0.001179   -0.003967   -0.045765
O    -2.344251   -1.219724    0.031317    0.000167   -0.000463   -0.004660
O     0.201864    2.589630   -0.224080   -0.000403    0.001139    0.014160
H     2.158468   -1.476510    0.112921   -0.028196    0.094570    1.097598
H    -0.126382   -2.023831    0.983823    0.037913    0.067939    0.013459
H    -1.907178    1.310752   -0.172042    0.000850   -0.001888   -0.025819
H     2.336107    1.048148    0.061101    0.043400   -0.138267   -1.630890
H    -0.078294   -2.159063   -0.643075   -0.039912   -0.065170    0.023046
13
* Frequency(22)  998.0759
C     1.373865    0.526266   -0.056764   -0.006438    0.021519    0.250496
C     1.301994   -0.792028    0.121520    0.004382   -0.013096   -0.154399
N    -0.008733   -1.462450    0.124868    0.000559   -0.003422   -0.036263
C    -1.330450   -0.610983    0.004374   -0.000633    0.001943    0.022632
N    -1.080704    0.709616   -0.097474   -0.000006    0.000245    0.000454
C     0.172397    1.399537   -0.114559    0.001179   -0.003967   -0.045765
O    -2.344270   -1.219674    0.031825    0.000167   -0.000463   -0.004660
O     0.201908    2.589506   -0.225623   -0.000403    0.001139    0.014160
H     2.161541   -1.486815   -0.006688   -0.028196    0.094570    1.097598
H    -0.130513   -2.031234    0.982356    0.037913    0.067939    0.013459
H    -1.907270    1.310958   -0.169229    0.000850   -0.001888   -0.025819
H     2.331378    1.063215    0.238825    0.043400   -0.138267   -1.630890
H    -0.073945   -2.151961   -0.645586   -0.039912   -0.065170    0.023046
13
* Frequency(22)  998.0759
C     1.374450    0.524310   -0.079540   -0.006438    0.021519    0.250496
C     1.301595   -0.790837    0.135558    0.004382   -0.013096   -0.154399
N    -0.008784   -1.462139    0.128165    0.000559   -0.003422   -0.036263
C    -1.330392   -0.611159    0.002317   -0.000633    0.001943    0.022632
N    -1.080703    0.709594   -0.097516   -0.000006    0.000245    0.000454
C     0.172290    1.399897   -0.110398    0.001179   -0.003967   -0.045765
O    -2.344285   -1.219632    0.032249    0.000167   -0.000463   -0.004660
O     0.201945    2.589402   -0.226911   -0.000403    0.001139    0.014160
H     2.164104   -1.495414   -0.106483   -0.028196    0.094570    1.097598
H    -0.133960   -2.037411    0.981132    0.037913    0.067939    0.013459
H    -1.907348    1.311130   -0.166881    0.000850   -0.001888   -0.025819
H     2.327432    1.075787    0.387108    0.043400   -0.138267   -1.630890
H    -0.070316   -2.146036   -0.647682   -0.039912   -0.065170    0.023046
13
* Frequency(22)  998.0759
C     1.374856    0.522954   -0.095325   -0.006438    0.021519    0.250496
C     1.301319   -0.790012    0.145288    0.004382   -0.013096   -0.154399
N    -0.008819   -1.461924    0.130450    0.000559   -0.003422   -0.036263
C    -1.330353   -0.611282    0.000890   -0.000633    0.001943    0.022632
N    -1.080703    0.709579   -0.097544   -0.000006    0.000245    0.000454
C     0.172216    1.400147   -0.107514    0.001179   -0.003967   -0.045765
O    -2.344295   -1.219603    0.032542    0.000167   -0.000463   -0.004660
O     0.201970    2.589330   -0.227803   -0.000403    0.001139    0.014160
H     2.165881   -1.501373   -0.175651   -0.028196    0.094570    1.097598
H    -0.136350   -2.041693    0.980284    0.037913    0.067939    0.013459
H    -1.907401    1.311249   -0.165254    0.000850   -0.001888   -0.025819
H     2.324697    1.084500    0.489882    0.043400   -0.138267   -1.630890
H    -0.067801   -2.141929   -0.649134   -0.039912   -0.065170    0.023046
13
* Frequency(22)  998.0759
C     1.375038    0.522345   -0.102410   -0.006438    0.021519    0.250496
C     1.301195   -0.789641    0.149655    0.004382   -0.013096   -0.154399
N    -0.008835   -1.461827    0.131476    0.000559   -0.003422   -0.036263
C    -1.330335   -0.611337    0.000250   -0.000633    0.001943    0.022632
N    -1.080703    0.709572   -0.097557   -0.000006    0.000245    0.000454
C     0.172182    1.400260   -0.106220    0.001179   -0.003967   -0.045765
O    -2.344300   -1.219589    0.032674    0.000167   -0.000463   -0.004660
O     0.201982    2.589298   -0.228204   -0.000403    0.001139    0.014160
H     2.166679   -1.504048   -0.206695   -0.028196    0.094570    1.097598
H    -0.137422   -2.043614    0.979904    0.037913    0.067939    0.013459
H    -1.907425    1.311302   -0.164524    0.000850   -0.001888   -0.025819
H     2.323469    1.088411    0.536010    0.043400   -0.138267   -1.630890
H    -0.066672   -2.140085   -0.649786   -0.039912   -0.065170    0.023046
13
* Frequency(22)  998.0759
C     1.374977    0.522550   -0.100027   -0.006438    0.021519    0.250496
C     1.301237   -0.789766    0.148186    0.004382   -0.013096   -0.154399
N    -0.008830   -1.461859    0.131131    0.000559   -0.003422   -0.036263
C    -1.330341   -0.611318    0.000466   -0.000633    0.001943    0.022632
N    -1.080703    0.709574   -0.097553   -0.000006    0.000245    0.000454
C     0.172193    1.400222   -0.106655    0.001179   -0.003967   -0.045765
O    -2.344298   -1.219594    0.032630    0.000167   -0.000463   -0.004660
O     0.201978    2.589309   -0.228069   -0.000403    0.001139    0.014160
H     2.166410   -1.503148   -0.196252   -0.028196    0.094570    1.097598
H    -0.137061   -2.042968    0.980032    0.037913    0.067939    0.013459
H    -1.907417    1.311284   -0.164770    0.000850   -0.001888   -0.025819
H     2.323882    1.087095    0.520493    0.043400   -0.138267   -1.630890
H    -0.067052   -2.140706   -0.649567   -0.039912   -0.065170    0.023046
13
* Frequency(22)  998.0759
C     1.374679    0.523546   -0.088433   -0.006438    0.021519    0.250496
C     1.301440   -0.790372    0.141040    0.004382   -0.013096   -0.154399
N    -0.008804   -1.462018    0.129453    0.000559   -0.003422   -0.036263
C    -1.330370   -0.611228    0.001513   -0.000633    0.001943    0.022632
N    -1.080703    0.709585   -0.097532   -0.000006    0.000245    0.000454
C     0.172248    1.400038   -0.108773    0.001179   -0.003967   -0.045765
O    -2.344291   -1.219615    0.032414    0.000167   -0.000463   -0.004660
O     0.201959    2.589362   -0.227414   -0.000403    0.001139    0.014160
H     2.165105   -1.498771   -0.145453   -0.028196    0.094570    1.097598
H    -0.135306   -2.039823    0.980655    0.037913    0.067939    0.013459
H    -1.907378    1.311197   -0.165965    0.000850   -0.001888   -0.025819
H     2.325891    1.080696    0.445013    0.043400   -0.138267   -1.630890
H    -0.068899   -2.143722   -0.648500   -0.039912   -0.065170    0.023046
13
* Frequency(22)  998.0759
C     1.374177    0.525225   -0.068886   -0.006438    0.021519    0.250496
C     1.301782   -0.791394    0.128992    0.004382   -0.013096   -0.154399
N    -0.008760   -1.462285    0.126623    0.000559   -0.003422   -0.036263
C    -1.330419   -0.611077    0.003279   -0.000633    0.001943    0.022632
N    -1.080704    0.709604   -0.097496   -0.000006    0.000245    0.000454
C     0.172340    1.399729   -0.112344    0.001179   -0.003967   -0.045765
O    -2.344278   -1.219651    0.032050    0.000167   -0.000463   -0.004660
O     0.201928    2.589450   -0.226309   -0.000403    0.001139    0.014160
H     2.162905   -1.491392   -0.059804   -0.028196    0.094570    1.097598
H    -0.132348   -2.034522    0.981705    0.037913    0.067939    0.013459
H    -1.907312    1.311050   -0.167979    0.000850   -0.001888   -0.025819
H     2.329278    1.069907    0.317748    0.043400   -0.138267   -1.630890
H    -0.072013   -2.148807   -0.646702   -0.039912   -0.065170    0.023046
13
* Frequency(22)  998.0759
C     1.373524    0.527406   -0.043504   -0.006438    0.021519    0.250496
C     1.302226   -0.792721    0.113347    0.004382   -0.013096   -0.154399
N    -0.008704   -1.462631    0.122948    0.000559   -0.003422   -0.036263
C    -1.330483   -0.610880    0.005572   -0.000633    0.001943    0.022632
N    -1.080704    0.709629   -0.097450   -0.000006    0.000245    0.000454
C     0.172459    1.399327   -0.116982    0.001179   -0.003967   -0.045765
O    -2.344261   -1.219698    0.031578    0.000167   -0.000463   -0.004660
O     0.201887    2.589566   -0.224874   -0.000403    0.001139    0.014160
H     2.160048   -1.481809    0.051416   -0.028196    0.094570    1.097598
H    -0.128506   -2.027638    0.983069    0.037913    0.067939    0.013459
H    -1.907225    1.310858   -0.170596    0.000850   -0.001888   -0.025819
H     2.333675    1.055896    0.152491    0.043400   -0.138267   -1.630890
H    -0.076058   -2.155411   -0.644366   -0.039912   -0.065170    0.023046
13
* Frequency(22)  998.0759
C     1.372793    0.529851   -0.015036   -0.006438    0.021519    0.250496
C     1.302724   -0.794210    0.095800    0.004382   -0.013096   -0.154399
N    -0.008640   -1.463020    0.118827    0.000559   -0.003422   -0.036263
C    -1.330555   -0.610659    0.008144   -0.000633    0.001943    0.022632
N    -1.080705    0.709657   -0.097399   -0.000006    0.000245    0.000454
C     0.172593    1.398876   -0.122183    0.001179   -0.003967   -0.045765
O    -2.344242   -1.219751    0.031049    0.000167   -0.000463   -0.004660
O     0.201841    2.589695   -0.223265   -0.000403    0.001139    0.014160
H     2.156844   -1.471062    0.176152   -0.028196    0.094570    1.097598
H    -0.124198   -2.019917    0.984598    0.037913    0.067939    0.013459
H    -1.907129    1.310644   -0.173530    0.000850   -0.001888   -0.025819
H     2.338608    1.040183   -0.032851    0.043400   -0.138267   -1.630890
H    -0.080594   -2.162817   -0.641747   -0.039912   -0.065170    0.023046
