13
* (null), Energy   -1000.0000000
C     1.628522    0.403282    0.009825   -0.245493    0.201065   -0.023908
C     1.558257   -0.920826    0.121541    0.164326    0.113577   -0.005496
N     0.246846   -1.589915    0.143551    0.096374   -0.069025    0.008563
C    -1.074947   -0.737408    0.033678    0.007748    0.006466   -0.000265
N    -0.825093    0.582903   -0.073451   -0.094633   -0.041247    0.000959
C     0.428005    1.271956   -0.097784    0.213775    0.009212    0.005138
O    -2.088804   -1.345922    0.058464    0.009056    0.015942   -0.001127
O     0.457572    2.462843   -0.197982   -0.017279   -0.050470    0.003819
H     2.412149   -1.597989    0.202997   -1.014866   -1.363372    0.090629
H     0.131582   -2.147641    1.008616   -0.396738    0.055471    0.019382
H    -1.651708    1.183769   -0.147738    0.018093    0.111538   -0.009214
H     2.594425    0.913409   -0.007422    0.220558   -0.708304    0.066478
H     0.175864   -2.288698   -0.617572   -0.393173    0.049017   -0.050020
13
* Frequency(28) 1382.8210
C     1.600623    0.426132    0.007108   -0.245493    0.201065   -0.023908
C     1.576932   -0.907918    0.120917    0.164326    0.113577   -0.005496
N     0.257798   -1.597759    0.144524    0.096374   -0.069025    0.008563
C    -1.074067   -0.736673    0.033648    0.007748    0.006466   -0.000265
N    -0.835847    0.578216   -0.073342   -0.094633   -0.041247    0.000959
C     0.452299    1.273003   -0.097200    0.213775    0.009212    0.005138
O    -2.087775   -1.344110    0.058336    0.009056    0.015942   -0.001127
O     0.455608    2.457107   -0.197548   -0.017279   -0.050470    0.003819
H     2.296814   -1.752929    0.213296   -1.014866   -1.363372    0.090629
H     0.086495   -2.141337    1.010818   -0.396738    0.055471    0.019382
H    -1.649652    1.196445   -0.148785    0.018093    0.111538   -0.009214
H     2.619490    0.832914    0.000133    0.220558   -0.708304    0.066478
H     0.131182   -2.283128   -0.623257   -0.393173    0.049017   -0.050020
13
* Frequency(28) 1382.8210
C     1.575747    0.446505    0.004686   -0.245493    0.201065   -0.023908
C     1.593583   -0.896410    0.120360    0.164326    0.113577   -0.005496
N     0.267564   -1.604753    0.145392    0.096374   -0.069025    0.008563
C    -1.073282   -0.736018    0.033621    0.007748    0.006466   -0.000265
N    -0.845437    0.574036   -0.073245   -0.094633   -0.041247    0.000959
C     0.473961    1.273936   -0.096680    0.213775    0.009212    0.005138
O    -2.086857   -1.342494    0.058222    0.009056    0.015942   -0.001127
O     0.453858    2.451993   -0.197161   -0.017279   -0.050470    0.003819
H     2.193978   -1.891079    0.222480   -1.014866   -1.363372    0.090629
H     0.046294   -2.135716    1.012782   -0.396738    0.055471    0.019382
H    -1.647818    1.207747   -0.149719    0.018093    0.111538   -0.009214
H     2.641839    0.761142    0.006869    0.220558   -0.708304    0.066478
H     0.091342   -2.278161   -0.628325   -0.393173    0.049017   -0.050020
13
* Frequency(28) 1382.8210
C     1.556591    0.462195    0.002820   -0.245493    0.201065   -0.023908
C     1.606406   -0.887547    0.119931    0.164326    0.113577   -0.005496
N     0.275084   -1.610139    0.146060    0.096374   -0.069025    0.008563
C    -1.072677   -0.735513    0.033600    0.007748    0.006466   -0.000265
N    -0.852821    0.570818   -0.073170   -0.094633   -0.041247    0.000959
C     0.490643    1.274655   -0.096279    0.213775    0.009212    0.005138
O    -2.086151   -1.341250    0.058134    0.009056    0.015942   -0.001127
O     0.452509    2.448054   -0.196863   -0.017279   -0.050470    0.003819
H     2.114784   -1.997468    0.229552   -1.014866   -1.363372    0.090629
H     0.015335   -2.131388    1.014295   -0.396738    0.055471    0.019382
H    -1.646407    1.216451   -0.150438    0.018093    0.111538   -0.009214
H     2.659050    0.705870    0.012057    0.220558   -0.708304    0.066478
H     0.060661   -2.274336   -0.632228   -0.393173    0.049017   -0.050020
13
* Frequency(28) 1382.8210
C     1.545229    0.471501    0.001714   -0.245493    0.201065   -0.023908
C     1.614011   -0.882290    0.119677    0.164326    0.113577   -0.005496
N     0.279544   -1.613334    0.146456    0.096374   -0.069025    0.008563
C    -1.072319   -0.735214    0.033588    0.007748    0.006466   -0.000265
N    -0.857201    0.568909   -0.073125   -0.094633   -0.041247    0.000959
C     0.500537    1.275082   -0.096041    0.213775    0.009212    0.005138
O    -2.085732   -1.340513    0.058082    0.009056    0.015942   -0.001127
O     0.451710    2.445719   -0.196687   -0.017279   -0.050470    0.003819
H     2.067815   -2.060567    0.233746   -1.014866   -1.363372    0.090629
H    -0.003027   -2.128820    1.015192   -0.396738    0.055471    0.019382
H    -1.645569    1.221613   -0.150864    0.018093    0.111538   -0.009214
H     2.669258    0.673089    0.015133    0.220558   -0.708304    0.066478
H     0.042464   -2.272067   -0.634543   -0.393173    0.049017   -0.050020
13
* Frequency(28) 1382.8210
C     1.542893    0.473414    0.001486   -0.245493    0.201065   -0.023908
C     1.615575   -0.881209    0.119624    0.164326    0.113577   -0.005496
N     0.280461   -1.613991    0.146538    0.096374   -0.069025    0.008563
C    -1.072245   -0.735153    0.033586    0.007748    0.006466   -0.000265
N    -0.858101    0.568516   -0.073116   -0.094633   -0.041247    0.000959
C     0.502571    1.275169   -0.095992    0.213775    0.009212    0.005138
O    -2.085645   -1.340361    0.058071    0.009056    0.015942   -0.001127
O     0.451545    2.445238   -0.196650   -0.017279   -0.050470    0.003819
H     2.058159   -2.073539    0.234608   -1.014866   -1.363372    0.090629
H    -0.006802   -2.128293    1.015376   -0.396738    0.055471    0.019382
H    -1.645397    1.222675   -0.150952    0.018093    0.111538   -0.009214
H     2.671357    0.666349    0.015766    0.220558   -0.708304    0.066478
H     0.038723   -2.271601   -0.635019   -0.393173    0.049017   -0.050020
13
* Frequency(28) 1382.8210
C     1.549837    0.467727    0.002162   -0.245493    0.201065   -0.023908
C     1.610927   -0.884422    0.119780    0.164326    0.113577   -0.005496
N     0.277736   -1.612038    0.146296    0.096374   -0.069025    0.008563
C    -1.072464   -0.735335    0.033593    0.007748    0.006466   -0.000265
N    -0.855425    0.569683   -0.073144   -0.094633   -0.041247    0.000959
C     0.496524    1.274909   -0.096137    0.213775    0.009212    0.005138
O    -2.085902   -1.340812    0.058103    0.009056    0.015942   -0.001127
O     0.452034    2.446666   -0.196758   -0.017279   -0.050470    0.003819
H     2.086863   -2.034978    0.232045   -1.014866   -1.363372    0.090629
H     0.004420   -2.129862    1.014828   -0.396738    0.055471    0.019382
H    -1.645909    1.219520   -0.150691    0.018093    0.111538   -0.009214
H     2.665118    0.686383    0.013885    0.220558   -0.708304    0.066478
H     0.049844   -2.272987   -0.633604   -0.393173    0.049017   -0.050020
13
* Frequency(28) 1382.8210
C     1.565307    0.455057    0.003669   -0.245493    0.201065   -0.023908
C     1.600572   -0.891579    0.120126    0.164326    0.113577   -0.005496
N     0.271662   -1.607689    0.145756    0.096374   -0.069025    0.008563
C    -1.072952   -0.735743    0.033610    0.007748    0.006466   -0.000265
N    -0.849461    0.572282   -0.073204   -0.094633   -0.041247    0.000959
C     0.483053    1.274328   -0.096461    0.213775    0.009212    0.005138
O    -2.086472   -1.341816    0.058174    0.009056    0.015942   -0.001127
O     0.453123    2.449846   -0.196999   -0.017279   -0.050470    0.003819
H     2.150817   -1.949062    0.226334   -1.014866   -1.363372    0.090629
H     0.029421   -2.133357    1.013606   -0.396738    0.055471    0.019382
H    -1.647049    1.212491   -0.150111    0.018093    0.111538   -0.009214
H     2.651219    0.731018    0.009696    0.220558   -0.708304    0.066478
H     0.074621   -2.276076   -0.630452   -0.393173    0.049017   -0.050020
13
* Frequency(28) 1382.8210
C     1.587628    0.436775    0.005843   -0.245493    0.201065   -0.023908
C     1.585631   -0.901906    0.120626    0.164326    0.113577   -0.005496
N     0.262900   -1.601413    0.144977    0.096374   -0.069025    0.008563
C    -1.073657   -0.736331    0.033634    0.007748    0.006466   -0.000265
N    -0.840857    0.576032   -0.073291   -0.094633   -0.041247    0.000959
C     0.463616    1.273490   -0.096928    0.213775    0.009212    0.005138
O    -2.087296   -1.343266    0.058277    0.009056    0.015942   -0.001127
O     0.454694    2.454435   -0.197346   -0.017279   -0.050470    0.003819
H     2.243091   -1.825102    0.218094   -1.014866   -1.363372    0.090629
H     0.065493   -2.138401    1.011844   -0.396738    0.055471    0.019382
H    -1.648694    1.202350   -0.149273    0.018093    0.111538   -0.009214
H     2.631166    0.795419    0.003652    0.220558   -0.708304    0.066478
H     0.110369   -2.280533   -0.625904   -0.393173    0.049017   -0.050020
13
* Frequency(28) 1382.8210
C     1.614380    0.414865    0.008448   -0.245493    0.201065   -0.023908
C     1.567724   -0.914283    0.121225    0.164326    0.113577   -0.005496
N     0.252398   -1.593891    0.144044    0.096374   -0.069025    0.008563
C    -1.074501   -0.737035    0.033663    0.007748    0.006466   -0.000265
N    -0.830544    0.580527   -0.073396   -0.094633   -0.041247    0.000959
C     0.440320    1.272487   -0.097488    0.213775    0.009212    0.005138
O    -2.088283   -1.345003    0.058399    0.009056    0.015942   -0.001127
O     0.456577    2.459935   -0.197762   -0.017279   -0.050470    0.003819
H     2.353684   -1.676530    0.208218   -1.014866   -1.363372    0.090629
H     0.108727   -2.144446    1.009732   -0.396738    0.055471    0.019382
H    -1.650666    1.190195   -0.148269    0.018093    0.111538   -0.009214
H     2.607131    0.872605   -0.003592    0.220558   -0.708304    0.066478
H     0.153214   -2.285875   -0.620454   -0.393173    0.049017   -0.050020
13
* Frequency(28) 1382.8210
C     1.642665    0.391699    0.011203   -0.245493    0.201065   -0.023908
C     1.548791   -0.927369    0.121858    0.164326    0.113577   -0.005496
N     0.241294   -1.585938    0.143058    0.096374   -0.069025    0.008563
C    -1.075394   -0.737780    0.033693    0.007748    0.006466   -0.000265
N    -0.819641    0.585280   -0.073506   -0.094633   -0.041247    0.000959
C     0.415690    1.271425   -0.098080    0.213775    0.009212    0.005138
O    -2.089326   -1.346840    0.058529    0.009056    0.015942   -0.001127
O     0.458567    2.465750   -0.198202   -0.017279   -0.050470    0.003819
H     2.470613   -1.519448    0.197776   -1.014866   -1.363372    0.090629
H     0.154438   -2.150837    1.007499   -0.396738    0.055471    0.019382
H    -1.652750    1.177344   -0.147207    0.018093    0.111538   -0.009214
H     2.581719    0.954213   -0.011252    0.220558   -0.708304    0.066478
H     0.198514   -2.291522   -0.614691   -0.393173    0.049017   -0.050020
13
* Frequency(28) 1382.8210
C     1.669417    0.369788    0.013808   -0.245493    0.201065   -0.023908
C     1.530883   -0.939746    0.122457    0.164326    0.113577   -0.005496
N     0.230791   -1.578416    0.142125    0.096374   -0.069025    0.008563
C    -1.076238   -0.738485    0.033722    0.007748    0.006466   -0.000265
N    -0.809329    0.589774   -0.073611   -0.094633   -0.041247    0.000959
C     0.392394    1.270421   -0.098640    0.213775    0.009212    0.005138
O    -2.090313   -1.348577    0.058652    0.009056    0.015942   -0.001127
O     0.460450    2.471250   -0.198618   -0.017279   -0.050470    0.003819
H     2.581207   -1.370876    0.187900   -1.014866   -1.363372    0.090629
H     0.197672   -2.156882    1.005387   -0.396738    0.055471    0.019382
H    -1.654722    1.165189   -0.146203    0.018093    0.111538   -0.009214
H     2.557684    1.031400   -0.018496    0.220558   -0.708304    0.066478
H     0.241359   -2.296864   -0.609240   -0.393173    0.049017   -0.050020
13
* Frequency(28) 1382.8210
C     1.691738    0.351507    0.015982   -0.245493    0.201065   -0.023908
C     1.515943   -0.950072    0.122957    0.164326    0.113577   -0.005496
N     0.222029   -1.572140    0.141346    0.096374   -0.069025    0.008563
C    -1.076943   -0.739073    0.033746    0.007748    0.006466   -0.000265
N    -0.800725    0.593525   -0.073698   -0.094633   -0.041247    0.000959
C     0.372957    1.269584   -0.099107    0.213775    0.009212    0.005138
O    -2.091136   -1.350027    0.058754    0.009056    0.015942   -0.001127
O     0.462021    2.475839   -0.198966   -0.017279   -0.050470    0.003819
H     2.673480   -1.246916    0.179660   -1.014866   -1.363372    0.090629
H     0.233744   -2.161925    1.003625   -0.396738    0.055471    0.019382
H    -1.656367    1.155048   -0.145365    0.018093    0.111538   -0.009214
H     2.537630    1.095800   -0.024540    0.220558   -0.708304    0.066478
H     0.277107   -2.301320   -0.604692   -0.393173    0.049017   -0.050020
13
* Frequency(28) 1382.8210
C     1.707208    0.338836    0.017488   -0.245493    0.201065   -0.023908
C     1.505587   -0.957230    0.123303    0.164326    0.113577   -0.005496
N     0.215956   -1.567791    0.140806    0.096374   -0.069025    0.008563
C    -1.077431   -0.739480    0.033763    0.007748    0.006466   -0.000265
N    -0.794761    0.596124   -0.073759   -0.094633   -0.041247    0.000959
C     0.359485    1.269003   -0.099431    0.213775    0.009212    0.005138
O    -2.091707   -1.351031    0.058825    0.009056    0.015942   -0.001127
O     0.463110    2.479019   -0.199206   -0.017279   -0.050470    0.003819
H     2.737434   -1.161000    0.173948   -1.014866   -1.363372    0.090629
H     0.258745   -2.165421    1.002403   -0.396738    0.055471    0.019382
H    -1.657507    1.148019   -0.144785    0.018093    0.111538   -0.009214
H     2.523731    1.140435   -0.028730    0.220558   -0.708304    0.066478
H     0.301884   -2.304409   -0.601540   -0.393173    0.049017   -0.050020
13
* Frequency(28) 1382.8210
C     1.714152    0.333149    0.018165   -0.245493    0.201065   -0.023908
C     1.500939   -0.960442    0.123458    0.164326    0.113577   -0.005496
N     0.213230   -1.565838    0.140564    0.096374   -0.069025    0.008563
C    -1.077650   -0.739663    0.033770    0.007748    0.006466   -0.000265
N    -0.792084    0.597291   -0.073786   -0.094633   -0.041247    0.000959
C     0.353439    1.268743   -0.099576    0.213775    0.009212    0.005138
O    -2.091963   -1.351482    0.058857    0.009056    0.015942   -0.001127
O     0.463599    2.480447   -0.199314   -0.017279   -0.050470    0.003819
H     2.766138   -1.122438    0.171385   -1.014866   -1.363372    0.090629
H     0.269966   -2.166990    1.001855   -0.396738    0.055471    0.019382
H    -1.658019    1.144864   -0.144524    0.018093    0.111538   -0.009214
H     2.517493    1.160469   -0.030610    0.220558   -0.708304    0.066478
H     0.313005   -2.305796   -0.600125   -0.393173    0.049017   -0.050020
13
* Frequency(28) 1382.8210
C     1.711816    0.335062    0.017937   -0.245493    0.201065   -0.023908
C     1.502503   -0.959361    0.123406    0.164326    0.113577   -0.005496
N     0.214147   -1.566495    0.140646    0.096374   -0.069025    0.008563
C    -1.077576   -0.739602    0.033768    0.007748    0.006466   -0.000265
N    -0.792985    0.596898   -0.073777   -0.094633   -0.041247    0.000959
C     0.355473    1.268830   -0.099527    0.213775    0.009212    0.005138
O    -2.091877   -1.351331    0.058847    0.009056    0.015942   -0.001127
O     0.463435    2.479967   -0.199278   -0.017279   -0.050470    0.003819
H     2.756483   -1.135410    0.172247   -1.014866   -1.363372    0.090629
H     0.266192   -2.166462    1.002040   -0.396738    0.055471    0.019382
H    -1.657847    1.145926   -0.144612    0.018093    0.111538   -0.009214
H     2.519592    1.153730   -0.029977    0.220558   -0.708304    0.066478
H     0.309264   -2.305329   -0.600601   -0.393173    0.049017   -0.050020
13
* Frequency(28) 1382.8210
C     1.700454    0.344368    0.016831   -0.245493    0.201065   -0.023908
C     1.510108   -0.954105    0.123152    0.164326    0.113577   -0.005496
N     0.218607   -1.569690    0.141042    0.096374   -0.069025    0.008563
C    -1.077218   -0.739303    0.033755    0.007748    0.006466   -0.000265
N    -0.797365    0.594989   -0.073732   -0.094633   -0.041247    0.000959
C     0.365367    1.269257   -0.099289    0.213775    0.009212    0.005138
O    -2.091458   -1.350593    0.058794    0.009056    0.015942   -0.001127
O     0.462635    2.477631   -0.199101   -0.017279   -0.050470    0.003819
H     2.709513   -1.198509    0.176442   -1.014866   -1.363372    0.090629
H     0.247830   -2.163895    1.002937   -0.396738    0.055471    0.019382
H    -1.657009    1.151088   -0.145038    0.018093    0.111538   -0.009214
H     2.529800    1.120948   -0.026901    0.220558   -0.708304    0.066478
H     0.291067   -2.303061   -0.602916   -0.393173    0.049017   -0.050020
13
* Frequency(28) 1382.8210
C     1.681297    0.360058    0.014965   -0.245493    0.201065   -0.023908
C     1.522931   -0.945242    0.122723    0.164326    0.113577   -0.005496
N     0.226128   -1.575076    0.141710    0.096374   -0.069025    0.008563
C    -1.076613   -0.738798    0.033735    0.007748    0.006466   -0.000265
N    -0.804749    0.591770   -0.073657   -0.094633   -0.041247    0.000959
C     0.382049    1.269975   -0.098889    0.213775    0.009212    0.005138
O    -2.090751   -1.349349    0.058706    0.009056    0.015942   -0.001127
O     0.461287    2.473692   -0.198803   -0.017279   -0.050470    0.003819
H     2.630319   -1.304899    0.183514   -1.014866   -1.363372    0.090629
H     0.216871   -2.159566    1.004449   -0.396738    0.055471    0.019382
H    -1.655598    1.159792   -0.145757    0.018093    0.111538   -0.009214
H     2.547011    1.065676   -0.021713    0.220558   -0.708304    0.066478
H     0.260386   -2.299236   -0.606819   -0.393173    0.049017   -0.050020
13
* Frequency(28) 1382.8210
C     1.656421    0.380432    0.012542   -0.245493    0.201065   -0.023908
C     1.539582   -0.933733    0.122166    0.164326    0.113577   -0.005496
N     0.235893   -1.582070    0.142578    0.096374   -0.069025    0.008563
C    -1.075828   -0.738143    0.033708    0.007748    0.006466   -0.000265
N    -0.814338    0.587591   -0.073560   -0.094633   -0.041247    0.000959
C     0.403710    1.270909   -0.098368    0.213775    0.009212    0.005138
O    -2.089833   -1.347733    0.058592    0.009056    0.015942   -0.001127
O     0.459536    2.468578   -0.198416   -0.017279   -0.050470    0.003819
H     2.527483   -1.443049    0.192697   -1.014866   -1.363372    0.090629
H     0.176669   -2.153945    1.006413   -0.396738    0.055471    0.019382
H    -1.653764    1.171094   -0.146691    0.018093    0.111538   -0.009214
H     2.569360    0.993904   -0.014977    0.220558   -0.708304    0.066478
H     0.220546   -2.294269   -0.611888   -0.393173    0.049017   -0.050020
13
* Frequency(28) 1382.8210
C     1.628522    0.403282    0.009825   -0.245493    0.201065   -0.023908
C     1.558257   -0.920826    0.121541    0.164326    0.113577   -0.005496
N     0.246846   -1.589915    0.143551    0.096374   -0.069025    0.008563
C    -1.074947   -0.737408    0.033678    0.007748    0.006466   -0.000265
N    -0.825093    0.582903   -0.073451   -0.094633   -0.041247    0.000959
C     0.428005    1.271956   -0.097784    0.213775    0.009212    0.005138
O    -2.088804   -1.345922    0.058464    0.009056    0.015942   -0.001127
O     0.457572    2.462843   -0.197982   -0.017279   -0.050470    0.003819
H     2.412149   -1.597989    0.202997   -1.014866   -1.363372    0.090629
H     0.131582   -2.147641    1.008616   -0.396738    0.055471    0.019382
H    -1.651708    1.183769   -0.147738    0.018093    0.111538   -0.009214
H     2.594425    0.913409   -0.007422    0.220558   -0.708304    0.066478
H     0.175864   -2.288698   -0.617572   -0.393173    0.049017   -0.050020
