13
* (null), Energy   -1000.0000000
C     1.372793    0.529851   -0.015036    0.000039    0.000117    0.000572
C     1.302724   -0.794210    0.095800   -0.000010   -0.000182   -0.001792
N    -0.008640   -1.463020    0.118827   -0.004637    0.012007    0.161145
C    -1.330555   -0.610659    0.008144    0.000128   -0.000117   -0.001019
N    -1.080705    0.709657   -0.097399    0.000017    0.000024    0.000275
C     0.172593    1.398876   -0.122183    0.000006   -0.000051   -0.000255
O    -2.344242   -1.219751    0.031049   -0.000036    0.000002    0.000101
O     0.201841    2.589695   -0.223265   -0.000000    0.000015    0.000029
H     2.156844   -1.471062    0.176152    0.000156   -0.000258   -0.002662
H    -0.124198   -2.019917    0.984598    0.150743    0.771069   -1.200536
H    -1.907129    1.310644   -0.173530   -0.000512    0.000531    0.001571
H     2.338608    1.040183   -0.032851   -0.000487   -0.000034    0.001910
H    -0.080594   -2.162817   -0.641747   -0.087052   -0.935992   -1.015692
13
* Frequency(37) 3381.2420
C     1.372797    0.529864   -0.014971    0.000039    0.000117    0.000572
C     1.302723   -0.794230    0.095597   -0.000010   -0.000182   -0.001792
N    -0.009167   -1.461656    0.137141   -0.004637    0.012007    0.161145
C    -1.330541   -0.610672    0.008029    0.000128   -0.000117   -0.001019
N    -1.080703    0.709660   -0.097367    0.000017    0.000024    0.000275
C     0.172594    1.398870   -0.122212    0.000006   -0.000051   -0.000255
O    -2.344246   -1.219751    0.031060   -0.000036    0.000002    0.000101
O     0.201841    2.589697   -0.223261   -0.000000    0.000015    0.000029
H     2.156861   -1.471091    0.175849    0.000156   -0.000258   -0.002662
H    -0.107066   -1.932289    0.848164    0.150743    0.771069   -1.200536
H    -1.907187    1.310704   -0.173351   -0.000512    0.000531    0.001571
H     2.338552    1.040179   -0.032634   -0.000487   -0.000034    0.001910
H    -0.090487   -2.269188   -0.757175   -0.087052   -0.935992   -1.015692
13
* Frequency(37) 3381.2420
C     1.372801    0.529876   -0.014913    0.000039    0.000117    0.000572
C     1.302722   -0.794249    0.095415   -0.000010   -0.000182   -0.001792
N    -0.009637   -1.460439    0.153469   -0.004637    0.012007    0.161145
C    -1.330528   -0.610684    0.007925    0.000128   -0.000117   -0.001019
N    -1.080701    0.709662   -0.097340    0.000017    0.000024    0.000275
C     0.172595    1.398865   -0.122238    0.000006   -0.000051   -0.000255
O    -2.344250   -1.219750    0.031070   -0.000036    0.000002    0.000101
O     0.201841    2.589698   -0.223258   -0.000000    0.000015    0.000029
H     2.156877   -1.471117    0.175580    0.000156   -0.000258   -0.002662
H    -0.091792   -1.854157    0.726514    0.150743    0.771069   -1.200536
H    -1.907239    1.310758   -0.173192   -0.000512    0.000531    0.001571
H     2.338503    1.040175   -0.032441   -0.000487   -0.000034    0.001910
H    -0.099308   -2.364032   -0.860095   -0.087052   -0.935992   -1.015692
13
* Frequency(37) 3381.2420
C     1.372804    0.529885   -0.014868    0.000039    0.000117    0.000572
C     1.302721   -0.794263    0.095275   -0.000010   -0.000182   -0.001792
N    -0.009999   -1.459502    0.166044   -0.004637    0.012007    0.161145
C    -1.330518   -0.610693    0.007846    0.000128   -0.000117   -0.001019
N    -1.080700    0.709664   -0.097318    0.000017    0.000024    0.000275
C     0.172595    1.398861   -0.122258    0.000006   -0.000051   -0.000255
O    -2.344253   -1.219750    0.031078   -0.000036    0.000002    0.000101
O     0.201841    2.589700   -0.223256   -0.000000    0.000015    0.000029
H     2.156889   -1.471137    0.175372    0.000156   -0.000258   -0.002662
H    -0.080029   -1.793987    0.632831    0.150743    0.771069   -1.200536
H    -1.907279    1.310799   -0.173069   -0.000512    0.000531    0.001571
H     2.338465    1.040173   -0.032292   -0.000487   -0.000034    0.001910
H    -0.106101   -2.437071   -0.939353   -0.087052   -0.935992   -1.015692
13
* Frequency(37) 3381.2420
C     1.372806    0.529891   -0.014842    0.000039    0.000117    0.000572
C     1.302720   -0.794271    0.095192   -0.000010   -0.000182   -0.001792
N    -0.010213   -1.458947    0.173502   -0.004637    0.012007    0.161145
C    -1.330512   -0.610699    0.007799    0.000128   -0.000117   -0.001019
N    -1.080699    0.709665   -0.097305    0.000017    0.000024    0.000275
C     0.172595    1.398859   -0.122269    0.000006   -0.000051   -0.000255
O    -2.344254   -1.219750    0.031083   -0.000036    0.000002    0.000101
O     0.201841    2.589700   -0.223255   -0.000000    0.000015    0.000029
H     2.156896   -1.471149    0.175249    0.000156   -0.000258   -0.002662
H    -0.073052   -1.758301    0.577268    0.150743    0.771069   -1.200536
H    -1.907303    1.310824   -0.172997   -0.000512    0.000531    0.001571
H     2.338442    1.040171   -0.032204   -0.000487   -0.000034    0.001910
H    -0.110129   -2.480390   -0.986362   -0.087052   -0.935992   -1.015692
13
* Frequency(37) 3381.2420
C     1.372806    0.529892   -0.014837    0.000039    0.000117    0.000572
C     1.302720   -0.794273    0.095175   -0.000010   -0.000182   -0.001792
N    -0.010257   -1.458832    0.175035   -0.004637    0.012007    0.161145
C    -1.330511   -0.610700    0.007789    0.000128   -0.000117   -0.001019
N    -1.080699    0.709665   -0.097303    0.000017    0.000024    0.000275
C     0.172595    1.398858   -0.122272    0.000006   -0.000051   -0.000255
O    -2.344255   -1.219750    0.031084   -0.000036    0.000002    0.000101
O     0.201841    2.589701   -0.223255   -0.000000    0.000015    0.000029
H     2.156898   -1.471152    0.175223    0.000156   -0.000258   -0.002662
H    -0.071618   -1.750964    0.565846    0.150743    0.771069   -1.200536
H    -1.907307    1.310829   -0.172982   -0.000512    0.000531    0.001571
H     2.338438    1.040171   -0.032185   -0.000487   -0.000034    0.001910
H    -0.110958   -2.489295   -0.996025   -0.087052   -0.935992   -1.015692
13
* Frequency(37) 3381.2420
C     1.372805    0.529889   -0.014853    0.000039    0.000117    0.000572
C     1.302721   -0.794268    0.095226   -0.000010   -0.000182   -0.001792
N    -0.010126   -1.459172    0.170478   -0.004637    0.012007    0.161145
C    -1.330514   -0.610697    0.007818    0.000128   -0.000117   -0.001019
N    -1.080700    0.709665   -0.097311    0.000017    0.000024    0.000275
C     0.172595    1.398859   -0.122265    0.000006   -0.000051   -0.000255
O    -2.344254   -1.219750    0.031081   -0.000036    0.000002    0.000101
O     0.201841    2.589700   -0.223255   -0.000000    0.000015    0.000029
H     2.156893   -1.471144    0.175299    0.000156   -0.000258   -0.002662
H    -0.075881   -1.772773    0.599802    0.150743    0.771069   -1.200536
H    -1.907293    1.310814   -0.173026   -0.000512    0.000531    0.001571
H     2.338451    1.040172   -0.032239   -0.000487   -0.000034    0.001910
H    -0.108496   -2.462822   -0.967298   -0.087052   -0.935992   -1.015692
13
* Frequency(37) 3381.2420
C     1.372803    0.529881   -0.014889    0.000039    0.000117    0.000572
C     1.302721   -0.794256    0.095339   -0.000010   -0.000182   -0.001792
N    -0.009834   -1.459929    0.160323   -0.004637    0.012007    0.161145
C    -1.330522   -0.610689    0.007882    0.000128   -0.000117   -0.001019
N    -1.080701    0.709663   -0.097328    0.000017    0.000024    0.000275
C     0.172595    1.398863   -0.122249    0.000006   -0.000051   -0.000255
O    -2.344251   -1.219750    0.031075   -0.000036    0.000002    0.000101
O     0.201841    2.589699   -0.223257   -0.000000    0.000015    0.000029
H     2.156884   -1.471128    0.175466    0.000156   -0.000258   -0.002662
H    -0.085381   -1.821364    0.675456    0.150743    0.771069   -1.200536
H    -1.907261    1.310780   -0.173125   -0.000512    0.000531    0.001571
H     2.338482    1.040174   -0.032360   -0.000487   -0.000034    0.001910
H    -0.103010   -2.403838   -0.903291   -0.087052   -0.935992   -1.015692
13
* Frequency(37) 3381.2420
C     1.372799    0.529871   -0.014941    0.000039    0.000117    0.000572
C     1.302722   -0.794240    0.095502   -0.000010   -0.000182   -0.001792
N    -0.009413   -1.461020    0.145671   -0.004637    0.012007    0.161145
C    -1.330534   -0.610679    0.007975    0.000128   -0.000117   -0.001019
N    -1.080702    0.709661   -0.097353    0.000017    0.000024    0.000275
C     0.172594    1.398867   -0.122225    0.000006   -0.000051   -0.000255
O    -2.344248   -1.219751    0.031066   -0.000036    0.000002    0.000101
O     0.201841    2.589698   -0.223260   -0.000000    0.000015    0.000029
H     2.156870   -1.471105    0.175708    0.000156   -0.000258   -0.002662
H    -0.099087   -1.891471    0.784611    0.150743    0.771069   -1.200536
H    -1.907214    1.310732   -0.173268   -0.000512    0.000531    0.001571
H     2.338526    1.040177   -0.032533   -0.000487   -0.000034    0.001910
H    -0.095095   -2.318736   -0.810943   -0.087052   -0.935992   -1.015692
13
* Frequency(37) 3381.2420
C     1.372795    0.529858   -0.015003    0.000039    0.000117    0.000572
C     1.302723   -0.794220    0.095697   -0.000010   -0.000182   -0.001792
N    -0.008907   -1.462329    0.128110   -0.004637    0.012007    0.161145
C    -1.330548   -0.610666    0.008086    0.000128   -0.000117   -0.001019
N    -1.080704    0.709658   -0.097383    0.000017    0.000024    0.000275
C     0.172594    1.398873   -0.122197    0.000006   -0.000051   -0.000255
O    -2.344244   -1.219751    0.031055   -0.000036    0.000002    0.000101
O     0.201841    2.589696   -0.223263   -0.000000    0.000015    0.000029
H     2.156853   -1.471077    0.175998    0.000156   -0.000258   -0.002662
H    -0.115514   -1.975497    0.915438    0.150743    0.771069   -1.200536
H    -1.907158    1.310674   -0.173439   -0.000512    0.000531    0.001571
H     2.338579    1.040181   -0.032741   -0.000487   -0.000034    0.001910
H    -0.085608   -2.216738   -0.700259   -0.087052   -0.935992   -1.015692
13
* Frequency(37) 3381.2420
C     1.372790    0.529844   -0.015069    0.000039    0.000117    0.000572
C     1.302725   -0.794199    0.095903   -0.000010   -0.000182   -0.001792
N    -0.008373   -1.463712    0.109544   -0.004637    0.012007    0.161145
C    -1.330563   -0.610652    0.008203    0.000128   -0.000117   -0.001019
N    -1.080706    0.709656   -0.097414    0.000017    0.000024    0.000275
C     0.172593    1.398879   -0.122168    0.000006   -0.000051   -0.000255
O    -2.344240   -1.219751    0.031043   -0.000036    0.000002    0.000101
O     0.201841    2.589694   -0.223266   -0.000000    0.000015    0.000029
H     2.156835   -1.471047    0.176305    0.000156   -0.000258   -0.002662
H    -0.132882   -2.064337    1.053759    0.150743    0.771069   -1.200536
H    -1.907099    1.310613   -0.173620   -0.000512    0.000531    0.001571
H     2.338636    1.040185   -0.032961   -0.000487   -0.000034    0.001910
H    -0.075579   -2.108896   -0.583235   -0.087052   -0.935992   -1.015692
13
* Frequency(37) 3381.2420
C     1.372786    0.529832   -0.015131    0.000039    0.000117    0.000572
C     1.302726   -0.794179    0.096099   -0.000010   -0.000182   -0.001792
N    -0.007868   -1.465021    0.091983   -0.004637    0.012007    0.161145
C    -1.330577   -0.610640    0.008314    0.000128   -0.000117   -0.001019
N    -1.080708    0.709653   -0.097444    0.000017    0.000024    0.000275
C     0.172592    1.398884   -0.122140    0.000006   -0.000051   -0.000255
O    -2.344236   -1.219751    0.031032   -0.000036    0.000002    0.000101
O     0.201841    2.589693   -0.223270   -0.000000    0.000015    0.000029
H     2.156818   -1.471019    0.176595    0.000156   -0.000258   -0.002662
H    -0.149309   -2.148363    1.184585    0.150743    0.771069   -1.200536
H    -1.907044    1.310555   -0.173791   -0.000512    0.000531    0.001571
H     2.338689    1.040188   -0.033170   -0.000487   -0.000034    0.001910
H    -0.066092   -2.006898   -0.472552   -0.087052   -0.935992   -1.015692
13
* Frequency(37) 3381.2420
C     1.372783    0.529821   -0.015183    0.000039    0.000117    0.000572
C     1.302727   -0.794163    0.096262   -0.000010   -0.000182   -0.001792
N    -0.007446   -1.466112    0.077332   -0.004637    0.012007    0.161145
C    -1.330588   -0.610629    0.008407    0.000128   -0.000117   -0.001019
N    -1.080709    0.709651   -0.097469    0.000017    0.000024    0.000275
C     0.172592    1.398889   -0.122117    0.000006   -0.000051   -0.000255
O    -2.344233   -1.219751    0.031023   -0.000036    0.000002    0.000101
O     0.201841    2.589691   -0.223272   -0.000000    0.000015    0.000029
H     2.156804   -1.470995    0.176837    0.000156   -0.000258   -0.002662
H    -0.163014   -2.218470    1.293740    0.150743    0.771069   -1.200536
H    -1.906997    1.310507   -0.173934   -0.000512    0.000531    0.001571
H     2.338733    1.040191   -0.033343   -0.000487   -0.000034    0.001910
H    -0.058177   -1.921796   -0.380203   -0.087052   -0.935992   -1.015692
13
* Frequency(37) 3381.2420
C     1.372780    0.529814   -0.015219    0.000039    0.000117    0.000572
C     1.302727   -0.794151    0.096375   -0.000010   -0.000182   -0.001792
N    -0.007154   -1.466869    0.067177   -0.004637    0.012007    0.161145
C    -1.330596   -0.610622    0.008471    0.000128   -0.000117   -0.001019
N    -1.080710    0.709649   -0.097487    0.000017    0.000024    0.000275
C     0.172591    1.398892   -0.122101    0.000006   -0.000051   -0.000255
O    -2.344230   -1.219752    0.031016   -0.000036    0.000002    0.000101
O     0.201841    2.589690   -0.223274   -0.000000    0.000015    0.000029
H     2.156794   -1.470979    0.177005    0.000156   -0.000258   -0.002662
H    -0.172514   -2.267060    1.369395    0.150743    0.771069   -1.200536
H    -1.906965    1.310473   -0.174033   -0.000512    0.000531    0.001571
H     2.338764    1.040194   -0.033464   -0.000487   -0.000034    0.001910
H    -0.052692   -1.862812   -0.316197   -0.087052   -0.935992   -1.015692
13
* Frequency(37) 3381.2420
C     1.372779    0.529810   -0.015236    0.000039    0.000117    0.000572
C     1.302728   -0.794146    0.096425   -0.000010   -0.000182   -0.001792
N    -0.007023   -1.467208    0.062619   -0.004637    0.012007    0.161145
C    -1.330600   -0.610619    0.008500    0.000128   -0.000117   -0.001019
N    -1.080711    0.709648   -0.097495    0.000017    0.000024    0.000275
C     0.172591    1.398894   -0.122094    0.000006   -0.000051   -0.000255
O    -2.344229   -1.219752    0.031013   -0.000036    0.000002    0.000101
O     0.201841    2.589690   -0.223275   -0.000000    0.000015    0.000029
H     2.156789   -1.470972    0.177080    0.000156   -0.000258   -0.002662
H    -0.176777   -2.288869    1.403351    0.150743    0.771069   -1.200536
H    -1.906950    1.310458   -0.174078   -0.000512    0.000531    0.001571
H     2.338777    1.040195   -0.033518   -0.000487   -0.000034    0.001910
H    -0.050229   -1.836339   -0.287469   -0.087052   -0.935992   -1.015692
13
* Frequency(37) 3381.2420
C     1.372780    0.529811   -0.015230    0.000039    0.000117    0.000572
C     1.302727   -0.794148    0.096408   -0.000010   -0.000182   -0.001792
N    -0.007067   -1.467094    0.064152   -0.004637    0.012007    0.161145
C    -1.330599   -0.610620    0.008490    0.000128   -0.000117   -0.001019
N    -1.080711    0.709649   -0.097492    0.000017    0.000024    0.000275
C     0.172591    1.398893   -0.122096    0.000006   -0.000051   -0.000255
O    -2.344230   -1.219752    0.031014   -0.000036    0.000002    0.000101
O     0.201841    2.589690   -0.223275   -0.000000    0.000015    0.000029
H     2.156791   -1.470974    0.177055    0.000156   -0.000258   -0.002662
H    -0.175343   -2.281533    1.391928    0.150743    0.771069   -1.200536
H    -1.906955    1.310463   -0.174063   -0.000512    0.000531    0.001571
H     2.338773    1.040194   -0.033499   -0.000487   -0.000034    0.001910
H    -0.051058   -1.845244   -0.297133   -0.087052   -0.935992   -1.015692
13
* Frequency(37) 3381.2420
C     1.372781    0.529817   -0.015204    0.000039    0.000117    0.000572
C     1.302727   -0.794156    0.096325   -0.000010   -0.000182   -0.001792
N    -0.007281   -1.466539    0.071610   -0.004637    0.012007    0.161145
C    -1.330593   -0.610625    0.008443    0.000128   -0.000117   -0.001019
N    -1.080710    0.709650   -0.097479    0.000017    0.000024    0.000275
C     0.172592    1.398891   -0.122108    0.000006   -0.000051   -0.000255
O    -2.344231   -1.219751    0.031019   -0.000036    0.000002    0.000101
O     0.201841    2.589691   -0.223273   -0.000000    0.000015    0.000029
H     2.156798   -1.470986    0.176932    0.000156   -0.000258   -0.002662
H    -0.168367   -2.245846    1.336365    0.150743    0.771069   -1.200536
H    -1.906979    1.310488   -0.173990   -0.000512    0.000531    0.001571
H     2.338750    1.040193   -0.033411   -0.000487   -0.000034    0.001910
H    -0.055087   -1.888564   -0.344141   -0.087052   -0.935992   -1.015692
13
* Frequency(37) 3381.2420
C     1.372784    0.529826   -0.015159    0.000039    0.000117    0.000572
C     1.302726   -0.794170    0.096186   -0.000010   -0.000182   -0.001792
N    -0.007643   -1.465602    0.084185   -0.004637    0.012007    0.161145
C    -1.330583   -0.610634    0.008364    0.000128   -0.000117   -0.001019
N    -1.080709    0.709652   -0.097458    0.000017    0.000024    0.000275
C     0.172592    1.398887   -0.122128    0.000006   -0.000051   -0.000255
O    -2.344234   -1.219751    0.031027   -0.000036    0.000002    0.000101
O     0.201841    2.589692   -0.223271   -0.000000    0.000015    0.000029
H     2.156810   -1.471006    0.176724    0.000156   -0.000258   -0.002662
H    -0.156604   -2.185677    1.242683    0.150743    0.771069   -1.200536
H    -1.907019    1.310529   -0.173868   -0.000512    0.000531    0.001571
H     2.338712    1.040190   -0.033262   -0.000487   -0.000034    0.001910
H    -0.061880   -1.961603   -0.423399   -0.087052   -0.935992   -1.015692
13
* Frequency(37) 3381.2420
C     1.372788    0.529838   -0.015101    0.000039    0.000117    0.000572
C     1.302725   -0.794189    0.096004   -0.000010   -0.000182   -0.001792
N    -0.008113   -1.464385    0.100514   -0.004637    0.012007    0.161145
C    -1.330570   -0.610646    0.008260    0.000128   -0.000117   -0.001019
N    -1.080707    0.709654   -0.097430    0.000017    0.000024    0.000275
C     0.172593    1.398882   -0.122154    0.000006   -0.000051   -0.000255
O    -2.344238   -1.219751    0.031037   -0.000036    0.000002    0.000101
O     0.201841    2.589694   -0.223268   -0.000000    0.000015    0.000029
H     2.156826   -1.471032    0.176454    0.000156   -0.000258   -0.002662
H    -0.141329   -2.107545    1.121033    0.150743    0.771069   -1.200536
H    -1.907071    1.310583   -0.173708   -0.000512    0.000531    0.001571
H     2.338663    1.040187   -0.033068   -0.000487   -0.000034    0.001910
H    -0.070701   -2.056446   -0.526319   -0.087052   -0.935992   -1.015692
13
* Frequency(37) 3381.2420
C     1.372793    0.529851   -0.015036    0.000039    0.000117    0.000572
C     1.302724   -0.794210    0.095800   -0.000010   -0.000182   -0.001792
N    -0.008640   -1.463020    0.118827   -0.004637    0.012007    0.161145
C    -1.330555   -0.610659    0.008144    0.000128   -0.000117   -0.001019
N    -1.080705    0.709657   -0.097399    0.000017    0.000024    0.000275
C     0.172593    1.398876   -0.122183    0.000006   -0.000051   -0.000255
O    -2.344242   -1.219751    0.031049   -0.000036    0.000002    0.000101
O     0.201841    2.589695   -0.223265   -0.000000    0.000015    0.000029
H     2.156844   -1.471062    0.176152    0.000156   -0.000258   -0.002662
H    -0.124198   -2.019917    0.984598    0.150743    0.771069   -1.200536
H    -1.907129    1.310644   -0.173530   -0.000512    0.000531    0.001571
H     2.338608    1.040183   -0.032851   -0.000487   -0.000034    0.001910
H    -0.080594   -2.162817   -0.641747   -0.087052   -0.935992   -1.015692
