13
* (null), Energy   -1000.0000000
C     1.628522    0.403282    0.009825   -0.003039    0.008879    0.099883
C     1.558257   -0.920826    0.121541   -0.001191    0.002918    0.029820
N     0.246846   -1.589915    0.143551   -0.001945    0.006130    0.076842
C    -1.074947   -0.737408    0.033678   -0.001927    0.005850    0.066793
N    -0.825093    0.582903   -0.073451    0.005338   -0.016142   -0.189141
C     0.428005    1.271956   -0.097784    0.001560   -0.004876   -0.055092
O    -2.088804   -1.345922    0.058464    0.001308   -0.004017   -0.046063
O     0.457572    2.462843   -0.197982    0.000284   -0.000590   -0.004608
H     2.412149   -1.597989    0.202997    0.016657   -0.052395   -0.617372
H     0.131582   -2.147641    1.008616   -0.022443   -0.243129   -0.084545
H    -1.651708    1.183769   -0.147738   -0.048616    0.157604    1.815483
H     2.594425    0.913409   -0.007422    0.008147   -0.026197   -0.309885
H     0.175864   -2.288698   -0.617572    0.028601    0.224166   -0.123855
13
* Frequency(16)  745.7641
C     1.628177    0.404291    0.021177   -0.003039    0.008879    0.099883
C     1.558122   -0.920494    0.124930   -0.001191    0.002918    0.029820
N     0.246625   -1.589218    0.152284   -0.001945    0.006130    0.076842
C    -1.075166   -0.736743    0.041268   -0.001927    0.005850    0.066793
N    -0.824486    0.581069   -0.094946    0.005338   -0.016142   -0.189141
C     0.428182    1.271402   -0.104045    0.001560   -0.004876   -0.055092
O    -2.088656   -1.346378    0.053229    0.001308   -0.004017   -0.046063
O     0.457604    2.462776   -0.198506    0.000284   -0.000590   -0.004608
H     2.414042   -1.603943    0.132836    0.016657   -0.052395   -0.617372
H     0.129032   -2.175272    0.999008   -0.022443   -0.243129   -0.084545
H    -1.657233    1.201680    0.058582   -0.048616    0.157604    1.815483
H     2.595351    0.910432   -0.042639    0.008147   -0.026197   -0.309885
H     0.179114   -2.263223   -0.631648    0.028601    0.224166   -0.123855
13
* Frequency(16)  745.7641
C     1.627869    0.405190    0.031298   -0.003039    0.008879    0.099883
C     1.558001   -0.920198    0.127952   -0.001191    0.002918    0.029820
N     0.246428   -1.588597    0.160070   -0.001945    0.006130    0.076842
C    -1.075362   -0.736150    0.048037   -0.001927    0.005850    0.066793
N    -0.823945    0.579433   -0.114112    0.005338   -0.016142   -0.189141
C     0.428340    1.270908   -0.109627    0.001560   -0.004876   -0.055092
O    -2.088523   -1.346785    0.048562    0.001308   -0.004017   -0.046063
O     0.457633    2.462716   -0.198973    0.000284   -0.000590   -0.004608
H     2.415729   -1.609252    0.070277    0.016657   -0.052395   -0.617372
H     0.126758   -2.199908    0.990441   -0.022443   -0.243129   -0.084545
H    -1.662159    1.217650    0.242544   -0.048616    0.157604    1.815483
H     2.596176    0.907777   -0.074039    0.008147   -0.026197   -0.309885
H     0.182013   -2.240509   -0.644198    0.028601    0.224166   -0.123855
13
* Frequency(16)  745.7641
C     1.627632    0.405883    0.039092   -0.003039    0.008879    0.099883
C     1.557908   -0.919971    0.130279   -0.001191    0.002918    0.029820
N     0.246276   -1.588118    0.166066   -0.001945    0.006130    0.076842
C    -1.075512   -0.735694    0.053249   -0.001927    0.005850    0.066793
N    -0.823529    0.578174   -0.128871    0.005338   -0.016142   -0.189141
C     0.428462    1.270527   -0.113926    0.001560   -0.004876   -0.055092
O    -2.088421   -1.347098    0.044967    0.001308   -0.004017   -0.046063
O     0.457655    2.462670   -0.199332    0.000284   -0.000590   -0.004608
H     2.417029   -1.613341    0.022101    0.016657   -0.052395   -0.617372
H     0.125006   -2.218880    0.983843   -0.022443   -0.243129   -0.084545
H    -1.665953    1.229949    0.384213   -0.048616    0.157604    1.815483
H     2.596812    0.905733   -0.098221    0.008147   -0.026197   -0.309885
H     0.184244   -2.223016   -0.653863    0.028601    0.224166   -0.123855
13
* Frequency(16)  745.7641
C     1.627491    0.406294    0.043715   -0.003039    0.008879    0.099883
C     1.557853   -0.919836    0.131659   -0.001191    0.002918    0.029820
N     0.246186   -1.587835    0.169623   -0.001945    0.006130    0.076842
C    -1.075601   -0.735423    0.056340   -0.001927    0.005850    0.066793
N    -0.823282    0.577427   -0.137625    0.005338   -0.016142   -0.189141
C     0.428534    1.270302   -0.116476    0.001560   -0.004876   -0.055092
O    -2.088360   -1.347284    0.042835    0.001308   -0.004017   -0.046063
O     0.457669    2.462642   -0.199546    0.000284   -0.000590   -0.004608
H     2.417800   -1.615766   -0.006472    0.016657   -0.052395   -0.617372
H     0.123968   -2.230133    0.979930   -0.022443   -0.243129   -0.084545
H    -1.668203    1.237243    0.468237   -0.048616    0.157604    1.815483
H     2.597189    0.904521   -0.112563    0.008147   -0.026197   -0.309885
H     0.185568   -2.212641   -0.659595    0.028601    0.224166   -0.123855
13
* Frequency(16)  745.7641
C     1.627462    0.406379    0.044665   -0.003039    0.008879    0.099883
C     1.557842   -0.919808    0.131943   -0.001191    0.002918    0.029820
N     0.246167   -1.587776    0.170354   -0.001945    0.006130    0.076842
C    -1.075620   -0.735367    0.056975   -0.001927    0.005850    0.066793
N    -0.823231    0.577273   -0.139424    0.005338   -0.016142   -0.189141
C     0.428549    1.270255   -0.117000    0.001560   -0.004876   -0.055092
O    -2.088348   -1.347323    0.042397    0.001308   -0.004017   -0.046063
O     0.457671    2.462637   -0.199590    0.000284   -0.000590   -0.004608
H     2.417959   -1.616265   -0.012346    0.016657   -0.052395   -0.617372
H     0.123754   -2.232446    0.979126   -0.022443   -0.243129   -0.084545
H    -1.668666    1.238742    0.485511   -0.048616    0.157604    1.815483
H     2.597266    0.904272   -0.115511    0.008147   -0.026197   -0.309885
H     0.185840   -2.210508   -0.660773    0.028601    0.224166   -0.123855
13
* Frequency(16)  745.7641
C     1.627548    0.406128    0.041840   -0.003039    0.008879    0.099883
C     1.557875   -0.919890    0.131099   -0.001191    0.002918    0.029820
N     0.246222   -1.587950    0.168180   -0.001945    0.006130    0.076842
C    -1.075565   -0.735533    0.055086   -0.001927    0.005850    0.066793
N    -0.823382    0.577730   -0.134075    0.005338   -0.016142   -0.189141
C     0.428505    1.270393   -0.115442    0.001560   -0.004876   -0.055092
O    -2.088385   -1.347209    0.043700    0.001308   -0.004017   -0.046063
O     0.457663    2.462654   -0.199459    0.000284   -0.000590   -0.004608
H     2.417488   -1.614783    0.005116    0.016657   -0.052395   -0.617372
H     0.124389   -2.225569    0.981517   -0.022443   -0.243129   -0.084545
H    -1.667291    1.234285    0.434162   -0.048616    0.157604    1.815483
H     2.597036    0.905012   -0.106747    0.008147   -0.026197   -0.309885
H     0.185031   -2.216849   -0.657270    0.028601    0.224166   -0.123855
13
* Frequency(16)  745.7641
C     1.627740    0.405568    0.035546   -0.003039    0.008879    0.099883
C     1.557951   -0.920074    0.129220   -0.001191    0.002918    0.029820
N     0.246345   -1.588336    0.163338   -0.001945    0.006130    0.076842
C    -1.075444   -0.735901    0.050877   -0.001927    0.005850    0.066793
N    -0.823718    0.578747   -0.122155    0.005338   -0.016142   -0.189141
C     0.428407    1.270700   -0.111970    0.001560   -0.004876   -0.055092
O    -2.088467   -1.346956    0.046603    0.001308   -0.004017   -0.046063
O     0.457645    2.462691   -0.199169    0.000284   -0.000590   -0.004608
H     2.416438   -1.611481    0.044021    0.016657   -0.052395   -0.617372
H     0.125803   -2.210248    0.986845   -0.022443   -0.243129   -0.084545
H    -1.664227    1.224353    0.319755   -0.048616    0.157604    1.815483
H     2.596523    0.906663   -0.087218    0.008147   -0.026197   -0.309885
H     0.183229   -2.230975   -0.649465    0.028601    0.224166   -0.123855
13
* Frequency(16)  745.7641
C     1.628016    0.404761    0.026464   -0.003039    0.008879    0.099883
C     1.558059   -0.920340    0.126509   -0.001191    0.002918    0.029820
N     0.246522   -1.588893    0.156351   -0.001945    0.006130    0.076842
C    -1.075268   -0.736433    0.044804   -0.001927    0.005850    0.066793
N    -0.824204    0.580215   -0.104958    0.005338   -0.016142   -0.189141
C     0.428265    1.271144   -0.106961    0.001560   -0.004876   -0.055092
O    -2.088586   -1.346591    0.050791    0.001308   -0.004017   -0.046063
O     0.457619    2.462744   -0.198750    0.000284   -0.000590   -0.004608
H     2.414923   -1.606717    0.100154    0.016657   -0.052395   -0.617372
H     0.127844   -2.188142    0.994532   -0.022443   -0.243129   -0.084545
H    -1.659807    1.210023    0.154688   -0.048616    0.157604    1.815483
H     2.595782    0.909045   -0.059043    0.008147   -0.026197   -0.309885
H     0.180629   -2.251357   -0.638204    0.028601    0.224166   -0.123855
13
* Frequency(16)  745.7641
C     1.628347    0.403793    0.015579   -0.003039    0.008879    0.099883
C     1.558189   -0.920658    0.123259   -0.001191    0.002918    0.029820
N     0.246734   -1.589561    0.147978   -0.001945    0.006130    0.076842
C    -1.075058   -0.737071    0.037526   -0.001927    0.005850    0.066793
N    -0.824785    0.581974   -0.084347    0.005338   -0.016142   -0.189141
C     0.428095    1.271675   -0.100958    0.001560   -0.004876   -0.055092
O    -2.088729   -1.346153    0.055811    0.001308   -0.004017   -0.046063
O     0.457588    2.462809   -0.198248    0.000284   -0.000590   -0.004608
H     2.413108   -1.601007    0.167431    0.016657   -0.052395   -0.617372
H     0.130289   -2.161648    1.003745   -0.022443   -0.243129   -0.084545
H    -1.654509    1.192849   -0.043152   -0.048616    0.157604    1.815483
H     2.594894    0.911900   -0.025274    0.008147   -0.026197   -0.309885
H     0.177512   -2.275785   -0.624707    0.028601    0.224166   -0.123855
13
* Frequency(16)  745.7641
C     1.628697    0.402770    0.004071   -0.003039    0.008879    0.099883
C     1.558326   -0.920994    0.119824   -0.001191    0.002918    0.029820
N     0.246958   -1.590268    0.139124   -0.001945    0.006130    0.076842
C    -1.074836   -0.737745    0.029830   -0.001927    0.005850    0.066793
N    -0.825400    0.583833   -0.062555    0.005338   -0.016142   -0.189141
C     0.427915    1.272237   -0.094610    0.001560   -0.004876   -0.055092
O    -2.088880   -1.345690    0.061118    0.001308   -0.004017   -0.046063
O     0.457556    2.462877   -0.197717    0.000284   -0.000590   -0.004608
H     2.411189   -1.594970    0.238562    0.016657   -0.052395   -0.617372
H     0.132875   -2.133635    1.013486   -0.022443   -0.243129   -0.084545
H    -1.648907    1.174690   -0.252325   -0.048616    0.157604    1.815483
H     2.593956    0.914918    0.010430    0.008147   -0.026197   -0.309885
H     0.174216   -2.301612   -0.610437    0.028601    0.224166   -0.123855
13
* Frequency(16)  745.7641
C     1.629028    0.401802   -0.006813   -0.003039    0.008879    0.099883
C     1.558456   -0.921312    0.116574   -0.001191    0.002918    0.029820
N     0.247170   -1.590936    0.130751   -0.001945    0.006130    0.076842
C    -1.074626   -0.738382    0.022551   -0.001927    0.005850    0.066793
N    -0.825982    0.585592   -0.041944    0.005338   -0.016142   -0.189141
C     0.427745    1.272768   -0.088607    0.001560   -0.004876   -0.055092
O    -2.089022   -1.345253    0.066138    0.001308   -0.004017   -0.046063
O     0.457525    2.462941   -0.197215    0.000284   -0.000590   -0.004608
H     2.409374   -1.589261    0.305840    0.016657   -0.052395   -0.617372
H     0.135321   -2.107140    1.022699   -0.022443   -0.243129   -0.084545
H    -1.643609    1.157516   -0.450164   -0.048616    0.157604    1.815483
H     2.593068    0.917773    0.044199    0.008147   -0.026197   -0.309885
H     0.171100   -2.326040   -0.596940    0.028601    0.224166   -0.123855
13
* Frequency(16)  745.7641
C     1.629305    0.400995   -0.015895   -0.003039    0.008879    0.099883
C     1.558564   -0.921577    0.113863   -0.001191    0.002918    0.029820
N     0.247346   -1.591493    0.123764   -0.001945    0.006130    0.076842
C    -1.074451   -0.738914    0.016478   -0.001927    0.005850    0.066793
N    -0.826467    0.587060   -0.024747    0.005338   -0.016142   -0.189141
C     0.427603    1.273211   -0.083598    0.001560   -0.004876   -0.055092
O    -2.089141   -1.344887    0.070326    0.001308   -0.004017   -0.046063
O     0.457499    2.462995   -0.196796    0.000284   -0.000590   -0.004608
H     2.407859   -1.584497    0.361972    0.016657   -0.052395   -0.617372
H     0.137361   -2.085035    1.030386   -0.022443   -0.243129   -0.084545
H    -1.639189    1.143186   -0.615231   -0.048616    0.157604    1.815483
H     2.592327    0.920155    0.072374    0.008147   -0.026197   -0.309885
H     0.168499   -2.346422   -0.585679    0.028601    0.224166   -0.123855
13
* Frequency(16)  745.7641
C     1.629496    0.400436   -0.022189   -0.003039    0.008879    0.099883
C     1.558639   -0.921761    0.111984   -0.001191    0.002918    0.029820
N     0.247469   -1.591879    0.118922   -0.001945    0.006130    0.076842
C    -1.074330   -0.739283    0.012269   -0.001927    0.005850    0.066793
N    -0.826804    0.588077   -0.012827    0.005338   -0.016142   -0.189141
C     0.427505    1.273519   -0.080126    0.001560   -0.004876   -0.055092
O    -2.089224   -1.344634    0.073228    0.001308   -0.004017   -0.046063
O     0.457481    2.463032   -0.196505    0.000284   -0.000590   -0.004608
H     2.406810   -1.581195    0.400877    0.016657   -0.052395   -0.617372
H     0.138776   -2.069713    1.035714   -0.022443   -0.243129   -0.084545
H    -1.636125    1.133254   -0.729638   -0.048616    0.157604    1.815483
H     2.591814    0.921806    0.091903    0.008147   -0.026197   -0.309885
H     0.166697   -2.360548   -0.577874    0.028601    0.224166   -0.123855
13
* Frequency(16)  745.7641
C     1.629582    0.400184   -0.025014   -0.003039    0.008879    0.099883
C     1.558673   -0.921843    0.111140   -0.001191    0.002918    0.029820
N     0.247524   -1.592053    0.116748   -0.001945    0.006130    0.076842
C    -1.074275   -0.739449    0.010380   -0.001927    0.005850    0.066793
N    -0.826955    0.588534   -0.007478    0.005338   -0.016142   -0.189141
C     0.427461    1.273657   -0.078568    0.001560   -0.004876   -0.055092
O    -2.089261   -1.344521    0.074531    0.001308   -0.004017   -0.046063
O     0.457473    2.463048   -0.196375    0.000284   -0.000590   -0.004608
H     2.406338   -1.579713    0.418339    0.016657   -0.052395   -0.617372
H     0.139411   -2.062837    1.038105   -0.022443   -0.243129   -0.084545
H    -1.634750    1.128797   -0.780987   -0.048616    0.157604    1.815483
H     2.591583    0.922547    0.100667    0.008147   -0.026197   -0.309885
H     0.165888   -2.366888   -0.574371    0.028601    0.224166   -0.123855
13
* Frequency(16)  745.7641
C     1.629553    0.400269   -0.024064   -0.003039    0.008879    0.099883
C     1.558661   -0.921816    0.111424   -0.001191    0.002918    0.029820
N     0.247505   -1.591994    0.117479   -0.001945    0.006130    0.076842
C    -1.074294   -0.739393    0.011016   -0.001927    0.005850    0.066793
N    -0.826904    0.588380   -0.009277    0.005338   -0.016142   -0.189141
C     0.427475    1.273610   -0.079092    0.001560   -0.004876   -0.055092
O    -2.089248   -1.344559    0.074093    0.001308   -0.004017   -0.046063
O     0.457476    2.463043   -0.196419    0.000284   -0.000590   -0.004608
H     2.406497   -1.580212    0.412465    0.016657   -0.052395   -0.617372
H     0.139197   -2.065150    1.037301   -0.022443   -0.243129   -0.084545
H    -1.635213    1.130296   -0.763713   -0.048616    0.157604    1.815483
H     2.591661    0.922298    0.097719    0.008147   -0.026197   -0.309885
H     0.166160   -2.364756   -0.575549    0.028601    0.224166   -0.123855
13
* Frequency(16)  745.7641
C     1.629413    0.400680   -0.019441   -0.003039    0.008879    0.099883
C     1.558606   -0.921681    0.112804   -0.001191    0.002918    0.029820
N     0.247415   -1.591711    0.121036   -0.001945    0.006130    0.076842
C    -1.074383   -0.739122    0.014107   -0.001927    0.005850    0.066793
N    -0.826657    0.587633   -0.018031    0.005338   -0.016142   -0.189141
C     0.427548    1.273385   -0.081642    0.001560   -0.004876   -0.055092
O    -2.089188   -1.344745    0.071961    0.001308   -0.004017   -0.046063
O     0.457489    2.463016   -0.196632    0.000284   -0.000590   -0.004608
H     2.407268   -1.582637    0.383892    0.016657   -0.052395   -0.617372
H     0.138158   -2.076402    1.033388   -0.022443   -0.243129   -0.084545
H    -1.637463    1.137590   -0.679690   -0.048616    0.157604    1.815483
H     2.592038    0.921085    0.083377    0.008147   -0.026197   -0.309885
H     0.167484   -2.354381   -0.581282    0.028601    0.224166   -0.123855
13
* Frequency(16)  745.7641
C     1.629176    0.401373   -0.011647   -0.003039    0.008879    0.099883
C     1.558513   -0.921453    0.115131   -0.001191    0.002918    0.029820
N     0.247264   -1.591232    0.127032   -0.001945    0.006130    0.076842
C    -1.074533   -0.738666    0.019319   -0.001927    0.005850    0.066793
N    -0.826240    0.586373   -0.032791    0.005338   -0.016142   -0.189141
C     0.427669    1.273004   -0.085941    0.001560   -0.004876   -0.055092
O    -2.089085   -1.345058    0.068367    0.001308   -0.004017   -0.046063
O     0.457511    2.462969   -0.196992    0.000284   -0.000590   -0.004608
H     2.408568   -1.586725    0.335716    0.016657   -0.052395   -0.617372
H     0.136407   -2.095375    1.026791   -0.022443   -0.243129   -0.084545
H    -1.641257    1.149889   -0.538020   -0.048616    0.157604    1.815483
H     2.592674    0.919041    0.059195    0.008147   -0.026197   -0.309885
H     0.169715   -2.336888   -0.590947    0.028601    0.224166   -0.123855
13
* Frequency(16)  745.7641
C     1.628868    0.402272   -0.001526   -0.003039    0.008879    0.099883
C     1.558393   -0.921157    0.118153   -0.001191    0.002918    0.029820
N     0.247067   -1.590611    0.134818   -0.001945    0.006130    0.076842
C    -1.074728   -0.738073    0.026087   -0.001927    0.005850    0.066793
N    -0.825699    0.584738   -0.051956    0.005338   -0.016142   -0.189141
C     0.427828    1.272510   -0.091523    0.001560   -0.004876   -0.055092
O    -2.088953   -1.345465    0.063699    0.001308   -0.004017   -0.046063
O     0.457540    2.462910   -0.197459    0.000284   -0.000590   -0.004608
H     2.410256   -1.592034    0.273158    0.016657   -0.052395   -0.617372
H     0.134133   -2.120011    1.018224   -0.022443   -0.243129   -0.084545
H    -1.646183    1.165859   -0.354058   -0.048616    0.157604    1.815483
H     2.593499    0.916386    0.027795    0.008147   -0.026197   -0.309885
H     0.172614   -2.314174   -0.603497    0.028601    0.224166   -0.123855
13
* Frequency(16)  745.7641
C     1.628522    0.403282    0.009825   -0.003039    0.008879    0.099883
C     1.558257   -0.920826    0.121541   -0.001191    0.002918    0.029820
N     0.246846   -1.589915    0.143551   -0.001945    0.006130    0.076842
C    -1.074947   -0.737408    0.033678   -0.001927    0.005850    0.066793
N    -0.825093    0.582903   -0.073451    0.005338   -0.016142   -0.189141
C     0.428005    1.271956   -0.097784    0.001560   -0.004876   -0.055092
O    -2.088804   -1.345922    0.058464    0.001308   -0.004017   -0.046063
O     0.457572    2.462843   -0.197982    0.000284   -0.000590   -0.004608
H     2.412149   -1.597989    0.202997    0.016657   -0.052395   -0.617372
H     0.131582   -2.147641    1.008616   -0.022443   -0.243129   -0.084545
H    -1.651708    1.183769   -0.147738   -0.048616    0.157604    1.815483
H     2.594425    0.913409   -0.007422    0.008147   -0.026197   -0.309885
H     0.175864   -2.288698   -0.617572    0.028601    0.224166   -0.123855
