13
Coordinates from ORCA-job Uracil_1 E -414.567927107906
  C       1.338780      0.515080     -0.017080
  C       1.245260     -0.812400      0.092680
  N      -0.024150     -1.419660      0.116200
  C      -1.172370     -0.617430      0.008880
  N      -1.056250      0.719790     -0.106360
  C       0.138810      1.364060     -0.117600
  O      -2.193050     -1.270750      0.037880
  O       0.235340      2.577570     -0.204660
  H       2.150690     -1.416360      0.164630
  H      -0.217630     -1.982490      0.955840
  H      -1.894310      1.283150     -0.175340
  H       2.294440      1.030830     -0.037580
  H      -0.176220     -2.133920     -0.608930
13
Coordinates from ORCA-job Uracil_1 E -414.585078962749
  C       1.361251      0.522623     -0.016881
  C       1.282172     -0.805920      0.093533
  N      -0.016329     -1.444296      0.118809
  C      -1.242479     -0.619272      0.007816
  N      -1.076888      0.720451     -0.105591
  C       0.151908      1.381541     -0.118022
  O      -2.282123     -1.227875      0.030533
  O       0.231802      2.583904     -0.207279
  H       2.177423     -1.427477      0.166667
  H      -0.179894     -2.016994      0.973631
  H      -1.919980      1.297699     -0.177286
  H       2.320133      1.042601     -0.038144
  H      -0.137657     -2.169515     -0.619226
13
Coordinates from ORCA-job Uracil_1 E -414.590295346853
  C       1.370796      0.526999     -0.016696
  C       1.299310     -0.798669      0.093763
  N      -0.014899     -1.455441      0.119836
  C      -1.292381     -0.619743      0.007222
  N      -1.081039      0.715202     -0.103581
  C       0.163915      1.396483     -0.119175
  O      -2.323389     -1.210372      0.027549
  O       0.219593      2.588755     -0.210312
  H       2.172803     -1.450693      0.169312
  H      -0.149576     -2.022129      0.981116
  H      -1.921299      1.296522     -0.176877
  H       2.332529      1.044563     -0.037521
  H      -0.107021     -2.174006     -0.626075
13
Coordinates from ORCA-job Uracil_1 E -414.591326982448
  C       1.373239      0.529061     -0.016497
  C       1.304439     -0.794524      0.093911
  N      -0.013219     -1.460210      0.120120
  C      -1.318458     -0.617198      0.006845
  N      -1.079409      0.711031     -0.101536
  C       0.170896      1.403187     -0.119620
  O      -2.342160     -1.209604      0.027070
  O       0.209756      2.593031     -0.213538
  H       2.161194     -1.467993      0.171412
  H      -0.130397     -2.019438      0.985513
  H      -1.916112      1.297242     -0.176320
  H       2.337207      1.043117     -0.036633
  H      -0.087638     -2.170232     -0.632166
13
Coordinates from ORCA-job Uracil_1 E -414.591474336743
  C       1.373072      0.529984     -0.016335
  C       1.304209     -0.793364      0.094095
  N      -0.011851     -1.461862      0.120028
  C      -1.326132     -0.614112      0.006785
  N      -1.078282      0.709604     -0.100362
  C       0.172926      1.403337     -0.120348
  O      -2.345971     -1.213113      0.027722
  O       0.204875      2.593638     -0.215484
  H       2.155090     -1.474200      0.172668
  H      -0.123862     -2.017593      0.987363
  H      -1.911924      1.300398     -0.175844
  H       2.338166      1.042043     -0.035788
  H      -0.080974     -2.167292     -0.635941
13
Coordinates from ORCA-job Uracil_1 E -414.591512148273
  C       1.372685      0.530346     -0.016130
  C       1.303157     -0.793255      0.094439
  N      -0.010752     -1.462576      0.119856
  C      -1.328416     -0.611840      0.006880
  N      -1.078370      0.709317     -0.099361
  C       0.173158      1.401734     -0.120286
  O      -2.345281     -1.216417      0.028329
  O       0.202380      2.592524     -0.217468
  H       2.153057     -1.475392      0.173568
  H      -0.122271     -2.016990      0.987768
  H      -1.909194      1.304214     -0.175459
  H       2.338373      1.041171     -0.035313
  H      -0.079186     -2.165367     -0.638263
13
Coordinates from ORCA-job Uracil_1 E -414.591523859700
  C       1.372577      0.530306     -0.015967
  C       1.302530     -0.793544      0.094745
  N      -0.009929     -1.462825      0.119612
  C      -1.329097     -0.610842      0.007100
  N      -1.079147      0.709437     -0.098838
  C       0.172858      1.400136     -0.121069
  O      -2.344112     -1.218544      0.029128
  O       0.201537      2.591250     -0.218646
  H       2.153634     -1.474223      0.174343
  H      -0.122698     -2.017237      0.987280
  H      -1.907824      1.307346     -0.174983
  H       2.338488      1.040556     -0.034652
  H      -0.079477     -2.164347     -0.639492
13
Coordinates from ORCA-job Uracil_1 E -414.591528251758
  C       1.372663      0.530103     -0.015783
  C       1.302428     -0.793881      0.095129
  N      -0.009300     -1.462912      0.119426
  C      -1.329613     -0.610641      0.007352
  N      -1.079989      0.709580     -0.098266
  C       0.172570      1.399266     -0.120817
  O      -2.343714     -1.219569      0.029514
  O       0.201497      2.590323     -0.220164
  H       2.155124     -1.472583      0.174948
  H      -0.123545     -2.017980      0.986491
  H      -1.907259      1.309382     -0.174652
  H       2.338611      1.040175     -0.034447
  H      -0.080131     -2.163794     -0.640172
13
Coordinates from ORCA-job Uracil_1 E -414.591529078330
  C       1.372779      0.529883     -0.014692
  C       1.302565     -0.794231      0.095956
  N      -0.008508     -1.463019      0.118869
  C      -1.330704     -0.610445      0.008438
  N      -1.080945      0.709739     -0.096930
  C       0.172463      1.398537     -0.121361
  O      -2.343852     -1.220415      0.030734
  O       0.201701      2.589298     -0.224372
  H       2.156912     -1.470856      0.175904
  H      -0.124256     -2.019968      0.984553
  H      -1.906816      1.311400     -0.173629
  H       2.338691      1.039975     -0.032884
  H      -0.080691     -2.162427     -0.642025
13
Coordinates from ORCA-job Uracil_1 E -414.591530171541
  C       1.372793      0.529851     -0.015036
  C       1.302724     -0.794210      0.095800
  N      -0.008640     -1.463020      0.118827
  C      -1.330555     -0.610659      0.008144
  N      -1.080705      0.709657     -0.097399
  C       0.172593      1.398876     -0.122183
  O      -2.344242     -1.219751      0.031049
  O       0.201841      2.589695     -0.223265
  H       2.156844     -1.471062      0.176152
  H      -0.124198     -2.019917      0.984598
  H      -1.907129      1.310644     -0.173530
  H       2.338608      1.040183     -0.032851
  H      -0.080594     -2.162817     -0.641747
