13
* (null), Energy   -1000.0000000
C     1.372793    0.529851   -0.015036    0.245952   -0.200960    0.023644
C     1.302724   -0.794210    0.095800   -0.165161   -0.114141    0.005730
N    -0.008640   -1.463020    0.118827   -0.094884    0.069163   -0.008531
C    -1.330555   -0.610659    0.008144   -0.007146   -0.007475    0.000287
N    -1.080705    0.709657   -0.097399    0.094083    0.041312   -0.000892
C     0.172593    1.398876   -0.122183   -0.213573   -0.009247   -0.005030
O    -2.344242   -1.219751    0.031049   -0.009545   -0.015957    0.001089
O     0.201841    2.589695   -0.223265    0.017276    0.050798   -0.003865
H     2.156844   -1.471062    0.176152    1.016036    1.366340   -0.090894
H    -0.124198   -2.019917    0.984598    0.390788   -0.053886   -0.019065
H    -1.907129    1.310644   -0.173530   -0.016307   -0.108147    0.008546
H     2.338608    1.040183   -0.032851   -0.220704    0.708909   -0.066098
H    -0.080594   -2.162817   -0.641747    0.385945   -0.047471    0.049025
13
* Frequency(28) 1382.4016
C     1.400744    0.507013   -0.012349    0.245952   -0.200960    0.023644
C     1.283954   -0.807181    0.096451   -0.165161   -0.114141    0.005730
N    -0.019423   -1.455160    0.117858   -0.094884    0.069163   -0.008531
C    -1.331368   -0.611509    0.008177   -0.007146   -0.007475    0.000287
N    -1.070013    0.714352   -0.097500    0.094083    0.041312   -0.000892
C     0.148322    1.397825   -0.122754   -0.213573   -0.009247   -0.005030
O    -2.345327   -1.221564    0.031172   -0.009545   -0.015957    0.001089
O     0.203805    2.595468   -0.223704    0.017276    0.050798   -0.003865
H     2.272311   -1.315784    0.165822    1.016036    1.366340   -0.090894
H    -0.079787   -2.026041    0.982432    0.390788   -0.053886   -0.019065
H    -1.908982    1.298353   -0.172559   -0.016307   -0.108147    0.008546
H     2.313526    1.120747   -0.040363   -0.220704    0.708909   -0.066098
H    -0.036733   -2.168212   -0.636176    0.385945   -0.047471    0.049025
13
* Frequency(28) 1382.4016
C     1.425666    0.486650   -0.009953    0.245952   -0.200960    0.023644
C     1.267219   -0.818747    0.097032   -0.165161   -0.114141    0.005730
N    -0.029038   -1.448152    0.116993   -0.094884    0.069163   -0.008531
C    -1.332092   -0.612266    0.008206   -0.007146   -0.007475    0.000287
N    -1.060479    0.718538   -0.097591    0.094083    0.041312   -0.000892
C     0.126681    1.396888   -0.123264   -0.213573   -0.009247   -0.005030
O    -2.346294   -1.223181    0.031283   -0.009545   -0.015957    0.001089
O     0.205555    2.600616   -0.224096    0.017276    0.050798   -0.003865
H     2.375265   -1.177333    0.156612    1.016036    1.366340   -0.090894
H    -0.040188   -2.031501    0.980500    0.390788   -0.053886   -0.019065
H    -1.910635    1.287395   -0.171693   -0.016307   -0.108147    0.008546
H     2.291162    1.192580   -0.047061   -0.220704    0.708909   -0.066098
H     0.002375   -2.173022   -0.631208    0.385945   -0.047471    0.049025
13
* Frequency(28) 1382.4016
C     1.444859    0.470968   -0.008108    0.245952   -0.200960    0.023644
C     1.254330   -0.827654    0.097479   -0.165161   -0.114141    0.005730
N    -0.036442   -1.442755    0.116328   -0.094884    0.069163   -0.008531
C    -1.332649   -0.612849    0.008228   -0.007146   -0.007475    0.000287
N    -1.053138    0.721762   -0.097660    0.094083    0.041312   -0.000892
C     0.110015    1.396166   -0.123657   -0.213573   -0.009247   -0.005030
O    -2.347039   -1.224426    0.031368   -0.009545   -0.015957    0.001089
O     0.206903    2.604580   -0.224397    0.017276    0.050798   -0.003865
H     2.454550   -1.070713    0.149519    1.016036    1.366340   -0.090894
H    -0.009694   -2.035706    0.979012    0.390788   -0.053886   -0.019065
H    -1.911907    1.278956   -0.171026   -0.016307   -0.108147    0.008546
H     2.273939    1.247899   -0.052219   -0.220704    0.708909   -0.066098
H     0.032492   -2.176726   -0.627383    0.385945   -0.047471    0.049025
13
* Frequency(28) 1382.4016
C     1.456242    0.461667   -0.007014    0.245952   -0.200960    0.023644
C     1.246687   -0.832936    0.097745   -0.165161   -0.114141    0.005730
N    -0.040833   -1.439554    0.115933   -0.094884    0.069163   -0.008531
C    -1.332980   -0.613195    0.008242   -0.007146   -0.007475    0.000287
N    -1.048783    0.723674   -0.097701    0.094083    0.041312   -0.000892
C     0.100130    1.395738   -0.123889   -0.213573   -0.009247   -0.005030
O    -2.347480   -1.225165    0.031418   -0.009545   -0.015957    0.001089
O     0.207703    2.606931   -0.224576    0.017276    0.050798   -0.003865
H     2.501574   -1.007476    0.145312    1.016036    1.366340   -0.090894
H     0.008393   -2.038200    0.978130    0.390788   -0.053886   -0.019065
H    -1.912662    1.273951   -0.170630   -0.016307   -0.108147    0.008546
H     2.263725    1.280709   -0.055278   -0.220704    0.708909   -0.066098
H     0.050354   -2.178923   -0.625114    0.385945   -0.047471    0.049025
13
* Frequency(28) 1382.4016
C     1.458582    0.459755   -0.006789    0.245952   -0.200960    0.023644
C     1.245115   -0.834022    0.097799   -0.165161   -0.114141    0.005730
N    -0.041736   -1.438896    0.115852   -0.094884    0.069163   -0.008531
C    -1.333048   -0.613266    0.008245   -0.007146   -0.007475    0.000287
N    -1.047888    0.724067   -0.097710    0.094083    0.041312   -0.000892
C     0.098098    1.395650   -0.123937   -0.213573   -0.009247   -0.005030
O    -2.347571   -1.225317    0.031428   -0.009545   -0.015957    0.001089
O     0.207867    2.607414   -0.224613    0.017276    0.050798   -0.003865
H     2.511241   -0.994476    0.144447    1.016036    1.366340   -0.090894
H     0.012111   -2.038712    0.977948    0.390788   -0.053886   -0.019065
H    -1.912817    1.272922   -0.170549   -0.016307   -0.108147    0.008546
H     2.261625    1.287454   -0.055907   -0.220704    0.708909   -0.066098
H     0.054026   -2.179375   -0.624647    0.385945   -0.047471    0.049025
13
* Frequency(28) 1382.4016
C     1.451625    0.465439   -0.007458    0.245952   -0.200960    0.023644
C     1.249787   -0.830794    0.097637   -0.165161   -0.114141    0.005730
N    -0.039052   -1.440852    0.116093   -0.094884    0.069163   -0.008531
C    -1.332846   -0.613055    0.008236   -0.007146   -0.007475    0.000287
N    -1.050549    0.722898   -0.097685    0.094083    0.041312   -0.000892
C     0.104139    1.395912   -0.123795   -0.213573   -0.009247   -0.005030
O    -2.347301   -1.224865    0.031398   -0.009545   -0.015957    0.001089
O     0.207378    2.605977   -0.224504    0.017276    0.050798   -0.003865
H     2.482504   -1.033121    0.147018    1.016036    1.366340   -0.090894
H     0.001058   -2.037188    0.978488    0.390788   -0.053886   -0.019065
H    -1.912356    1.275980   -0.170791   -0.016307   -0.108147    0.008546
H     2.267867    1.267403   -0.054037   -0.220704    0.708909   -0.066098
H     0.043110   -2.178032   -0.626034    0.385945   -0.047471    0.049025
13
* Frequency(28) 1382.4016
C     1.436126    0.478103   -0.008948    0.245952   -0.200960    0.023644
C     1.260194   -0.823601    0.097276   -0.165161   -0.114141    0.005730
N    -0.033073   -1.445211    0.116631   -0.094884    0.069163   -0.008531
C    -1.332395   -0.612584    0.008218   -0.007146   -0.007475    0.000287
N    -1.056478    0.720295   -0.097628    0.094083    0.041312   -0.000892
C     0.117598    1.396495   -0.123478   -0.213573   -0.009247   -0.005030
O    -2.346700   -1.223860    0.031329   -0.009545   -0.015957    0.001089
O     0.206290    2.602776   -0.224260    0.017276    0.050798   -0.003865
H     2.418476   -1.119224    0.152746    1.016036    1.366340   -0.090894
H    -0.023568   -2.033792    0.979689    0.390788   -0.053886   -0.019065
H    -1.911328    1.282796   -0.171329   -0.016307   -0.108147    0.008546
H     2.281776    1.222729   -0.049872   -0.220704    0.708909   -0.066098
H     0.018789   -2.175041   -0.629123    0.385945   -0.047471    0.049025
13
* Frequency(28) 1382.4016
C     1.413764    0.496375   -0.011097    0.245952   -0.200960    0.023644
C     1.275211   -0.813223    0.096755   -0.165161   -0.114141    0.005730
N    -0.024446   -1.451499    0.117406   -0.094884    0.069163   -0.008531
C    -1.331746   -0.611904    0.008192   -0.007146   -0.007475    0.000287
N    -1.065032    0.716539   -0.097547    0.094083    0.041312   -0.000892
C     0.137016    1.397335   -0.123021   -0.213573   -0.009247   -0.005030
O    -2.345832   -1.222409    0.031230   -0.009545   -0.015957    0.001089
O     0.204719    2.598157   -0.223909    0.017276    0.050798   -0.003865
H     2.326096   -1.243455    0.161010    1.016036    1.366340   -0.090894
H    -0.059100   -2.028893    0.981422    0.390788   -0.053886   -0.019065
H    -1.909845    1.292628   -0.172106   -0.016307   -0.108147    0.008546
H     2.301842    1.158274   -0.043862   -0.220704    0.708909   -0.066098
H    -0.016302   -2.170725   -0.633581    0.385945   -0.047471    0.049025
13
* Frequency(28) 1382.4016
C     1.386962    0.518274   -0.013674    0.245952   -0.200960    0.023644
C     1.293209   -0.800785    0.096130   -0.165161   -0.114141    0.005730
N    -0.014106   -1.459036    0.118336   -0.094884    0.069163   -0.008531
C    -1.330967   -0.611090    0.008161   -0.007146   -0.007475    0.000287
N    -1.075285    0.712037   -0.097450    0.094083    0.041312   -0.000892
C     0.160290    1.398343   -0.122473   -0.213573   -0.009247   -0.005030
O    -2.344792   -1.220670    0.031111   -0.009545   -0.015957    0.001089
O     0.202836    2.592622   -0.223487    0.017276    0.050798   -0.003865
H     2.215375   -1.392349    0.170916    1.016036    1.366340   -0.090894
H    -0.101685   -2.023021    0.983500    0.390788   -0.053886   -0.019065
H    -1.908068    1.304413   -0.173037   -0.016307   -0.108147    0.008546
H     2.325893    1.081022   -0.036659   -0.220704    0.708909   -0.066098
H    -0.058360   -2.165552   -0.638923    0.385945   -0.047471    0.049025
13
* Frequency(28) 1382.4016
C     1.358624    0.541428   -0.016398    0.245952   -0.200960    0.023644
C     1.312239   -0.787634    0.095470   -0.165161   -0.114141    0.005730
N    -0.003174   -1.467005    0.119319   -0.094884    0.069163   -0.008531
C    -1.330144   -0.610229    0.008128   -0.007146   -0.007475    0.000287
N    -1.086125    0.707277   -0.097347    0.094083    0.041312   -0.000892
C     0.184897    1.399408   -0.121893   -0.213573   -0.009247   -0.005030
O    -2.343692   -1.218832    0.030986   -0.009545   -0.015957    0.001089
O     0.200846    2.586769   -0.223042    0.017276    0.050798   -0.003865
H     2.098312   -1.549774    0.181388    1.016036    1.366340   -0.090894
H    -0.146710   -2.016812    0.985696    0.390788   -0.053886   -0.019065
H    -1.906189    1.316874   -0.174022   -0.016307   -0.108147    0.008546
H     2.351322    0.999344   -0.029044   -0.220704    0.708909   -0.066098
H    -0.102827   -2.160082   -0.644571    0.385945   -0.047471    0.049025
13
* Frequency(28) 1382.4016
C     1.331822    0.563327   -0.018975    0.245952   -0.200960    0.023644
C     1.330237   -0.775196    0.094846   -0.165161   -0.114141    0.005730
N     0.007166   -1.474542    0.120248   -0.094884    0.069163   -0.008531
C    -1.329365   -0.609414    0.008097   -0.007146   -0.007475    0.000287
N    -1.096377    0.702775   -0.097250    0.094083    0.041312   -0.000892
C     0.208171    1.400416   -0.121345   -0.213573   -0.009247   -0.005030
O    -2.342652   -1.217093    0.030867   -0.009545   -0.015957    0.001089
O     0.198963    2.581233   -0.222621    0.017276    0.050798   -0.003865
H     1.987591   -1.698669    0.191293    1.016036    1.366340   -0.090894
H    -0.189296   -2.010940    0.987774    0.390788   -0.053886   -0.019065
H    -1.904412    1.328659   -0.174953   -0.016307   -0.108147    0.008546
H     2.375373    0.922091   -0.021841   -0.220704    0.708909   -0.066098
H    -0.144885   -2.154909   -0.649914    0.385945   -0.047471    0.049025
13
* Frequency(28) 1382.4016
C     1.309459    0.581599   -0.021125    0.245952   -0.200960    0.023644
C     1.345253   -0.764818    0.094325   -0.165161   -0.114141    0.005730
N     0.015793   -1.480830    0.121024   -0.094884    0.069163   -0.008531
C    -1.328715   -0.608734    0.008071   -0.007146   -0.007475    0.000287
N    -1.104932    0.699019   -0.097169    0.094083    0.041312   -0.000892
C     0.227589    1.401257   -0.120888   -0.213573   -0.009247   -0.005030
O    -2.341784   -1.215642    0.030768   -0.009545   -0.015957    0.001089
O     0.197393    2.576615   -0.222269    0.017276    0.050798   -0.003865
H     1.895211   -1.822899    0.199557    1.016036    1.366340   -0.090894
H    -0.224827   -2.006041    0.989507    0.390788   -0.053886   -0.019065
H    -1.902930    1.338492   -0.175730   -0.016307   -0.108147    0.008546
H     2.395439    0.857636   -0.015831   -0.220704    0.708909   -0.066098
H    -0.179976   -2.150593   -0.654371    0.385945   -0.047471    0.049025
13
* Frequency(28) 1382.4016
C     1.293960    0.594263   -0.022615    0.245952   -0.200960    0.023644
C     1.355661   -0.757625    0.093964   -0.165161   -0.114141    0.005730
N     0.021772   -1.485189    0.121561   -0.094884    0.069163   -0.008531
C    -1.328265   -0.608263    0.008053   -0.007146   -0.007475    0.000287
N    -1.110861    0.696416   -0.097113    0.094083    0.041312   -0.000892
C     0.241048    1.401840   -0.120571   -0.213573   -0.009247   -0.005030
O    -2.341183   -1.214636    0.030700   -0.009545   -0.015957    0.001089
O     0.196304    2.573413   -0.222026    0.017276    0.050798   -0.003865
H     1.831183   -1.909002    0.205285    1.016036    1.366340   -0.090894
H    -0.249453   -2.002645    0.990709    0.390788   -0.053886   -0.019065
H    -1.901902    1.345307   -0.176269   -0.016307   -0.108147    0.008546
H     2.409348    0.812963   -0.011666   -0.220704    0.708909   -0.066098
H    -0.204297   -2.147602   -0.657461    0.385945   -0.047471    0.049025
13
* Frequency(28) 1382.4016
C     1.287004    0.599947   -0.023283    0.245952   -0.200960    0.023644
C     1.360333   -0.754397    0.093801   -0.165161   -0.114141    0.005730
N     0.024456   -1.487145    0.121803   -0.094884    0.069163   -0.008531
C    -1.328063   -0.608052    0.008044   -0.007146   -0.007475    0.000287
N    -1.113522    0.695247   -0.097087    0.094083    0.041312   -0.000892
C     0.247089    1.402101   -0.120428   -0.213573   -0.009247   -0.005030
O    -2.340913   -1.214185    0.030669   -0.009545   -0.015957    0.001089
O     0.195815    2.571977   -0.221916    0.017276    0.050798   -0.003865
H     1.802446   -1.947647    0.207856    1.016036    1.366340   -0.090894
H    -0.260506   -2.001121    0.991248    0.390788   -0.053886   -0.019065
H    -1.901441    1.348366   -0.176511   -0.016307   -0.108147    0.008546
H     2.415590    0.792912   -0.009796   -0.220704    0.708909   -0.066098
H    -0.215213   -2.146259   -0.658847    0.385945   -0.047471    0.049025
13
* Frequency(28) 1382.4016
C     1.289344    0.598035   -0.023058    0.245952   -0.200960    0.023644
C     1.358761   -0.755483    0.093856   -0.165161   -0.114141    0.005730
N     0.023553   -1.486487    0.121722   -0.094884    0.069163   -0.008531
C    -1.328131   -0.608123    0.008047   -0.007146   -0.007475    0.000287
N    -1.112626    0.695640   -0.097096    0.094083    0.041312   -0.000892
C     0.245057    1.402013   -0.120476   -0.213573   -0.009247   -0.005030
O    -2.341003   -1.214337    0.030679   -0.009545   -0.015957    0.001089
O     0.195980    2.572460   -0.221953    0.017276    0.050798   -0.003865
H     1.812113   -1.934647    0.206991    1.016036    1.366340   -0.090894
H    -0.256788   -2.001634    0.991067    0.390788   -0.053886   -0.019065
H    -1.901596    1.347337   -0.176429   -0.016307   -0.108147    0.008546
H     2.413490    0.799657   -0.010425   -0.220704    0.708909   -0.066098
H    -0.211541   -2.146711   -0.658381    0.385945   -0.047471    0.049025
13
* Frequency(28) 1382.4016
C     1.300727    0.588734   -0.021964    0.245952   -0.200960    0.023644
C     1.351117   -0.760765    0.094121   -0.165161   -0.114141    0.005730
N     0.019162   -1.483286    0.121327   -0.094884    0.069163   -0.008531
C    -1.328462   -0.608469    0.008060   -0.007146   -0.007475    0.000287
N    -1.108272    0.697552   -0.097137    0.094083    0.041312   -0.000892
C     0.235172    1.401585   -0.120709   -0.213573   -0.009247   -0.005030
O    -2.341445   -1.215075    0.030730   -0.009545   -0.015957    0.001089
O     0.196779    2.574811   -0.222132    0.017276    0.050798   -0.003865
H     1.859137   -1.871411    0.202785    1.016036    1.366340   -0.090894
H    -0.238702   -2.004128    0.990184    0.390788   -0.053886   -0.019065
H    -1.902351    1.342331   -0.176034   -0.016307   -0.108147    0.008546
H     2.403276    0.832466   -0.013484   -0.220704    0.708909   -0.066098
H    -0.193679   -2.148908   -0.656112    0.385945   -0.047471    0.049025
13
* Frequency(28) 1382.4016
C     1.319919    0.573052   -0.020119    0.245952   -0.200960    0.023644
C     1.338229   -0.769672    0.094568   -0.165161   -0.114141    0.005730
N     0.011758   -1.477889    0.120661   -0.094884    0.069163   -0.008531
C    -1.329019   -0.609052    0.008083   -0.007146   -0.007475    0.000287
N    -1.100930    0.700776   -0.097207    0.094083    0.041312   -0.000892
C     0.218506    1.400864   -0.121101   -0.213573   -0.009247   -0.005030
O    -2.342190   -1.216320    0.030815   -0.009545   -0.015957    0.001089
O     0.198127    2.578775   -0.222434    0.017276    0.050798   -0.003865
H     1.938422   -1.764790    0.195692    1.016036    1.366340   -0.090894
H    -0.208207   -2.008333    0.988697    0.390788   -0.053886   -0.019065
H    -1.903623    1.333892   -0.175367   -0.016307   -0.108147    0.008546
H     2.386053    0.887785   -0.018642   -0.220704    0.708909   -0.066098
H    -0.163562   -2.152612   -0.652286    0.385945   -0.047471    0.049025
13
* Frequency(28) 1382.4016
C     1.344842    0.552689   -0.017723    0.245952   -0.200960    0.023644
C     1.321494   -0.781238    0.095149   -0.165161   -0.114141    0.005730
N     0.002143   -1.470880    0.119797   -0.094884    0.069163   -0.008531
C    -1.329743   -0.609810    0.008112   -0.007146   -0.007475    0.000287
N    -1.091397    0.704962   -0.097297    0.094083    0.041312   -0.000892
C     0.196865    1.399927   -0.121611   -0.213573   -0.009247   -0.005030
O    -2.343157   -1.217937    0.030925   -0.009545   -0.015957    0.001089
O     0.199878    2.583922   -0.222825    0.017276    0.050798   -0.003865
H     2.041376   -1.626339    0.186481    1.016036    1.366340   -0.090894
H    -0.168609   -2.013793    0.986765    0.390788   -0.053886   -0.019065
H    -1.905276    1.322934   -0.174501   -0.016307   -0.108147    0.008546
H     2.363689    0.959619   -0.025340   -0.220704    0.708909   -0.066098
H    -0.124454   -2.157422   -0.647319    0.385945   -0.047471    0.049025
13
* Frequency(28) 1382.4016
C     1.372793    0.529851   -0.015036    0.245952   -0.200960    0.023644
C     1.302724   -0.794210    0.095800   -0.165161   -0.114141    0.005730
N    -0.008640   -1.463020    0.118827   -0.094884    0.069163   -0.008531
C    -1.330555   -0.610659    0.008144   -0.007146   -0.007475    0.000287
N    -1.080705    0.709657   -0.097399    0.094083    0.041312   -0.000892
C     0.172593    1.398876   -0.122183   -0.213573   -0.009247   -0.005030
O    -2.344242   -1.219751    0.031049   -0.009545   -0.015957    0.001089
O     0.201841    2.589695   -0.223265    0.017276    0.050798   -0.003865
H     2.156844   -1.471062    0.176152    1.016036    1.366340   -0.090894
H    -0.124198   -2.019917    0.984598    0.390788   -0.053886   -0.019065
H    -1.907129    1.310644   -0.173530   -0.016307   -0.108147    0.008546
H     2.338608    1.040183   -0.032851   -0.220704    0.708909   -0.066098
H    -0.080594   -2.162817   -0.641747    0.385945   -0.047471    0.049025
