13
* (null), Energy   -1000.0000000
C     1.372793    0.529851   -0.015036    0.003374    0.003610   -0.000229
C     1.302724   -0.794210    0.095800   -0.002190   -0.001130    0.000076
N    -0.008640   -1.463020    0.118827   -0.017791   -0.119027    0.007152
C    -1.330555   -0.610659    0.008144    0.005831   -0.001006    0.000269
N    -1.080705    0.709657   -0.097399    0.000702    0.000196    0.000001
C     0.172593    1.398876   -0.122183    0.000024   -0.001441    0.000127
O    -2.344242   -1.219751    0.031049   -0.001876   -0.000442   -0.000016
O     0.201841    2.589695   -0.223265   -0.000003    0.000662   -0.000061
H     2.156844   -1.471062    0.176152   -0.002975    0.003878   -0.000346
H    -0.124198   -2.019917    0.984598    0.146103    0.703479   -1.185935
H    -1.907129    1.310644   -0.173530   -0.021066    0.019089   -0.002301
H     2.338608    1.040183   -0.032851   -0.027733   -0.012323    0.000279
H    -0.080594   -2.162817   -0.641747    0.089070    0.933253    1.087230
13
* Frequency(36) 3346.5084
C     1.373176    0.530261   -0.015062    0.003374    0.003610   -0.000229
C     1.302475   -0.794338    0.095809   -0.002190   -0.001130    0.000076
N    -0.010662   -1.476547    0.119640   -0.017791   -0.119027    0.007152
C    -1.329893   -0.610773    0.008175    0.005831   -0.001006    0.000269
N    -1.080625    0.709679   -0.097399    0.000702    0.000196    0.000001
C     0.172596    1.398712   -0.122168    0.000024   -0.001441    0.000127
O    -2.344455   -1.219801    0.031047   -0.001876   -0.000442   -0.000016
O     0.201841    2.589771   -0.223272   -0.000003    0.000662   -0.000061
H     2.156505   -1.470621    0.176113   -0.002975    0.003878   -0.000346
H    -0.107594   -1.939970    0.849823    0.146103    0.703479   -1.185935
H    -1.909523    1.312813   -0.173791   -0.021066    0.019089   -0.002301
H     2.335456    1.038782   -0.032820   -0.027733   -0.012323    0.000279
H    -0.070471   -2.056758   -0.518189    0.089070    0.933253    1.087230
13
* Frequency(36) 3346.5084
C     1.373518    0.530627   -0.015085    0.003374    0.003610   -0.000229
C     1.302253   -0.794452    0.095817   -0.002190   -0.001130    0.000076
N    -0.012465   -1.488608    0.120365   -0.017791   -0.119027    0.007152
C    -1.329302   -0.610875    0.008202    0.005831   -0.001006    0.000269
N    -1.080554    0.709699   -0.097398    0.000702    0.000196    0.000001
C     0.172598    1.398566   -0.122156    0.000024   -0.001441    0.000127
O    -2.344645   -1.219846    0.031045   -0.001876   -0.000442   -0.000016
O     0.201841    2.589838   -0.223278   -0.000003    0.000662   -0.000061
H     2.156204   -1.470228    0.176077   -0.002975    0.003878   -0.000346
H    -0.092789   -1.868687    0.729652    0.146103    0.703479   -1.185935
H    -1.911657    1.314747   -0.174024   -0.021066    0.019089   -0.002301
H     2.332646    1.037534   -0.032792   -0.027733   -0.012323    0.000279
H    -0.061446   -1.962192   -0.408021    0.089070    0.933253    1.087230
13
* Frequency(36) 3346.5084
C     1.373781    0.530909   -0.015103    0.003374    0.003610   -0.000229
C     1.302082   -0.794541    0.095823   -0.002190   -0.001130    0.000076
N    -0.013853   -1.497896    0.120923   -0.017791   -0.119027    0.007152
C    -1.328847   -0.610954    0.008223    0.005831   -0.001006    0.000269
N    -1.080499    0.709714   -0.097398    0.000702    0.000196    0.000001
C     0.172600    1.398453   -0.122146    0.000024   -0.001441    0.000127
O    -2.344792   -1.219880    0.031044   -0.001876   -0.000442   -0.000016
O     0.201840    2.589889   -0.223282   -0.000003    0.000662   -0.000061
H     2.155972   -1.469925    0.176051   -0.002975    0.003878   -0.000346
H    -0.081388   -1.813792    0.637109    0.146103    0.703479   -1.185935
H    -1.913301    1.316237   -0.174204   -0.021066    0.019089   -0.002301
H     2.330482    1.036572   -0.032770   -0.027733   -0.012323    0.000279
H    -0.054495   -1.889366   -0.323180    0.089070    0.933253    1.087230
13
* Frequency(36) 3346.5084
C     1.373938    0.531076   -0.015114    0.003374    0.003610   -0.000229
C     1.301981   -0.794593    0.095826   -0.002190   -0.001130    0.000076
N    -0.014676   -1.503405    0.121254   -0.017791   -0.119027    0.007152
C    -1.328577   -0.611000    0.008236    0.005831   -0.001006    0.000269
N    -1.080467    0.709723   -0.097398    0.000702    0.000196    0.000001
C     0.172601    1.398387   -0.122140    0.000024   -0.001441    0.000127
O    -2.344878   -1.219901    0.031043   -0.001876   -0.000442   -0.000016
O     0.201840    2.589920   -0.223285   -0.000003    0.000662   -0.000061
H     2.155834   -1.469746    0.176035   -0.002975    0.003878   -0.000346
H    -0.074626   -1.781233    0.582222    0.146103    0.703479   -1.185935
H    -1.914276    1.317120   -0.174311   -0.021066    0.019089   -0.002301
H     2.329198    1.036002   -0.032757   -0.027733   -0.012323    0.000279
H    -0.050373   -1.846174   -0.272861    0.089070    0.933253    1.087230
13
* Frequency(36) 3346.5084
C     1.373970    0.531110   -0.015116    0.003374    0.003610   -0.000229
C     1.301960   -0.794604    0.095827   -0.002190   -0.001130    0.000076
N    -0.014846   -1.504538    0.121322   -0.017791   -0.119027    0.007152
C    -1.328521   -0.611010    0.008238    0.005831   -0.001006    0.000269
N    -1.080460    0.709725   -0.097398    0.000702    0.000196    0.000001
C     0.172602    1.398373   -0.122139    0.000024   -0.001441    0.000127
O    -2.344896   -1.219905    0.031043   -0.001876   -0.000442   -0.000016
O     0.201840    2.589926   -0.223286   -0.000003    0.000662   -0.000061
H     2.155806   -1.469709    0.176031   -0.002975    0.003878   -0.000346
H    -0.073236   -1.774540    0.570938    0.146103    0.703479   -1.185935
H    -1.914477    1.317302   -0.174332   -0.021066    0.019089   -0.002301
H     2.328934    1.035884   -0.032754   -0.027733   -0.012323    0.000279
H    -0.049525   -1.837294   -0.262517    0.089070    0.933253    1.087230
13
* Frequency(36) 3346.5084
C     1.373874    0.531008   -0.015110    0.003374    0.003610   -0.000229
C     1.302022   -0.794572    0.095825   -0.002190   -0.001130    0.000076
N    -0.014342   -1.501171    0.121120   -0.017791   -0.119027    0.007152
C    -1.328686   -0.610982    0.008231    0.005831   -0.001006    0.000269
N    -1.080480    0.709720   -0.097398    0.000702    0.000196    0.000001
C     0.172601    1.398414   -0.122142    0.000024   -0.001441    0.000127
O    -2.344843   -1.219893    0.031044   -0.001876   -0.000442   -0.000016
O     0.201840    2.589908   -0.223284   -0.000003    0.000662   -0.000061
H     2.155890   -1.469819    0.176041   -0.002975    0.003878   -0.000346
H    -0.077369   -1.794437    0.604481    0.146103    0.703479   -1.185935
H    -1.913881    1.316762   -0.174267   -0.021066    0.019089   -0.002301
H     2.329719    1.036233   -0.032762   -0.027733   -0.012323    0.000279
H    -0.052045   -1.863690   -0.293268    0.089070    0.933253    1.087230
13
* Frequency(36) 3346.5084
C     1.373662    0.530781   -0.015095    0.003374    0.003610   -0.000229
C     1.302160   -0.794500    0.095820   -0.002190   -0.001130    0.000076
N    -0.013221   -1.493670    0.120669   -0.017791   -0.119027    0.007152
C    -1.329054   -0.610918    0.008214    0.005831   -0.001006    0.000269
N    -1.080524    0.709707   -0.097398    0.000702    0.000196    0.000001
C     0.172599    1.398505   -0.122150    0.000024   -0.001441    0.000127
O    -2.344725   -1.219865    0.031045   -0.001876   -0.000442   -0.000016
O     0.201841    2.589866   -0.223280   -0.000003    0.000662   -0.000061
H     2.156077   -1.470063    0.176063   -0.002975    0.003878   -0.000346
H    -0.086576   -1.838769    0.679216    0.146103    0.703479   -1.185935
H    -1.912553    1.315559   -0.174122   -0.021066    0.019089   -0.002301
H     2.331466    1.037010   -0.032780   -0.027733   -0.012323    0.000279
H    -0.057658   -1.922501   -0.361782    0.089070    0.933253    1.087230
13
* Frequency(36) 3346.5084
C     1.373355    0.530452   -0.015074    0.003374    0.003610   -0.000229
C     1.302359   -0.794398    0.095813   -0.002190   -0.001130    0.000076
N    -0.011604   -1.482848    0.120019   -0.017791   -0.119027    0.007152
C    -1.329584   -0.610827    0.008189    0.005831   -0.001006    0.000269
N    -1.080588    0.709690   -0.097399    0.000702    0.000196    0.000001
C     0.172597    1.398636   -0.122162    0.000024   -0.001441    0.000127
O    -2.344554   -1.219825    0.031046   -0.001876   -0.000442   -0.000016
O     0.201841    2.589806   -0.223275   -0.000003    0.000662   -0.000061
H     2.156348   -1.470416    0.176094   -0.002975    0.003878   -0.000346
H    -0.099859   -1.902730    0.787043    0.146103    0.703479   -1.185935
H    -1.910638    1.313823   -0.173913   -0.021066    0.019089   -0.002301
H     2.333988    1.038130   -0.032805   -0.027733   -0.012323    0.000279
H    -0.065756   -2.007354   -0.460635    0.089070    0.933253    1.087230
13
* Frequency(36) 3346.5084
C     1.372987    0.530059   -0.015049    0.003374    0.003610   -0.000229
C     1.302598   -0.794275    0.095805   -0.002190   -0.001130    0.000076
N    -0.009665   -1.469877    0.119239   -0.017791   -0.119027    0.007152
C    -1.330220   -0.610717    0.008160    0.005831   -0.001006    0.000269
N    -1.080665    0.709668   -0.097399    0.000702    0.000196    0.000001
C     0.172595    1.398793   -0.122175    0.000024   -0.001441    0.000127
O    -2.344350   -1.219776    0.031048   -0.001876   -0.000442   -0.000016
O     0.201841    2.589733   -0.223268   -0.000003    0.000662   -0.000061
H     2.156672   -1.470838    0.176132   -0.002975    0.003878   -0.000346
H    -0.115781   -1.979391    0.916279    0.146103    0.703479   -1.185935
H    -1.908342    1.311743   -0.173662   -0.021066    0.019089   -0.002301
H     2.337010    1.039473   -0.032835   -0.027733   -0.012323    0.000279
H    -0.075462   -2.109054   -0.579114    0.089070    0.933253    1.087230
13
* Frequency(36) 3346.5084
C     1.372598    0.529643   -0.015023    0.003374    0.003610   -0.000229
C     1.302850   -0.794144    0.095796   -0.002190   -0.001130    0.000076
N    -0.007615   -1.456163    0.118415   -0.017791   -0.119027    0.007152
C    -1.330891   -0.610601    0.008129    0.005831   -0.001006    0.000269
N    -1.080745    0.709646   -0.097399    0.000702    0.000196    0.000001
C     0.172592    1.398959   -0.122190    0.000024   -0.001441    0.000127
O    -2.344134   -1.219725    0.031050   -0.001876   -0.000442   -0.000016
O     0.201841    2.589657   -0.223261   -0.000003    0.000662   -0.000061
H     2.157015   -1.471285    0.176172   -0.002975    0.003878   -0.000346
H    -0.132614   -2.060443    1.052918    0.146103    0.703479   -1.185935
H    -1.905915    1.309544   -0.173397   -0.021066    0.019089   -0.002301
H     2.340205    1.040893   -0.032867   -0.027733   -0.012323    0.000279
H    -0.085725   -2.216580   -0.704380    0.089070    0.933253    1.087230
13
* Frequency(36) 3346.5084
C     1.372231    0.529250   -0.014998    0.003374    0.003610   -0.000229
C     1.303089   -0.794021    0.095788   -0.002190   -0.001130    0.000076
N    -0.005677   -1.443193    0.117636   -0.017791   -0.119027    0.007152
C    -1.331527   -0.610492    0.008100    0.005831   -0.001006    0.000269
N    -1.080822    0.709624   -0.097399    0.000702    0.000196    0.000001
C     0.172589    1.399116   -0.122204    0.000024   -0.001441    0.000127
O    -2.343929   -1.219677    0.031051   -0.001876   -0.000442   -0.000016
O     0.201842    2.589585   -0.223255   -0.000003    0.000662   -0.000061
H     2.157339   -1.471708    0.176209   -0.002975    0.003878   -0.000346
H    -0.148536   -2.137103    1.182153    0.146103    0.703479   -1.185935
H    -1.903620    1.307464   -0.173146   -0.021066    0.019089   -0.002301
H     2.343227    1.042236   -0.032898   -0.027733   -0.012323    0.000279
H    -0.095431   -2.318280   -0.822860    0.089070    0.933253    1.087230
13
* Frequency(36) 3346.5084
C     1.371924    0.528922   -0.014977    0.003374    0.003610   -0.000229
C     1.303288   -0.793919    0.095781   -0.002190   -0.001130    0.000076
N    -0.004059   -1.432370    0.116985   -0.017791   -0.119027    0.007152
C    -1.332057   -0.610400    0.008075    0.005831   -0.001006    0.000269
N    -1.080886    0.709607   -0.097399    0.000702    0.000196    0.000001
C     0.172587    1.399247   -0.122215    0.000024   -0.001441    0.000127
O    -2.343759   -1.219637    0.031053   -0.001876   -0.000442   -0.000016
O     0.201842    2.589525   -0.223249   -0.000003    0.000662   -0.000061
H     2.157610   -1.472060    0.176241   -0.002975    0.003878   -0.000346
H    -0.161820   -2.201065    1.289981    0.146103    0.703479   -1.185935
H    -1.901704    1.305728   -0.172937   -0.021066    0.019089   -0.002301
H     2.345749    1.043356   -0.032923   -0.027733   -0.012323    0.000279
H    -0.103529   -2.403133   -0.921713    0.089070    0.933253    1.087230
13
* Frequency(36) 3346.5084
C     1.371711    0.528694   -0.014963    0.003374    0.003610   -0.000229
C     1.303426   -0.793847    0.095776   -0.002190   -0.001130    0.000076
N    -0.002938   -1.424870    0.116535   -0.017791   -0.119027    0.007152
C    -1.332425   -0.610337    0.008058    0.005831   -0.001006    0.000269
N    -1.080930    0.709594   -0.097399    0.000702    0.000196    0.000001
C     0.172586    1.399338   -0.122223    0.000024   -0.001441    0.000127
O    -2.343641   -1.219609    0.031054   -0.001876   -0.000442   -0.000016
O     0.201842    2.589483   -0.223245   -0.000003    0.000662   -0.000061
H     2.157797   -1.472305    0.176263   -0.002975    0.003878   -0.000346
H    -0.171027   -2.245396    1.364715    0.146103    0.703479   -1.185935
H    -1.900377    1.304525   -0.172792   -0.021066    0.019089   -0.002301
H     2.347496    1.044133   -0.032941   -0.027733   -0.012323    0.000279
H    -0.109142   -2.461944   -0.990227    0.089070    0.933253    1.087230
13
* Frequency(36) 3346.5084
C     1.371616    0.528592   -0.014956    0.003374    0.003610   -0.000229
C     1.303488   -0.793815    0.095774   -0.002190   -0.001130    0.000076
N    -0.002435   -1.421503    0.116332   -0.017791   -0.119027    0.007152
C    -1.332589   -0.610308    0.008050    0.005831   -0.001006    0.000269
N    -1.080950    0.709589   -0.097399    0.000702    0.000196    0.000001
C     0.172585    1.399378   -0.122227    0.000024   -0.001441    0.000127
O    -2.343588   -1.219597    0.031054   -0.001876   -0.000442   -0.000016
O     0.201842    2.589464   -0.223244   -0.000003    0.000662   -0.000061
H     2.157881   -1.472414    0.176272   -0.002975    0.003878   -0.000346
H    -0.175159   -2.265293    1.398258    0.146103    0.703479   -1.185935
H    -1.899781    1.303985   -0.172727   -0.021066    0.019089   -0.002301
H     2.348281    1.044481   -0.032949   -0.027733   -0.012323    0.000279
H    -0.111662   -2.488340   -1.020978    0.089070    0.933253    1.087230
13
* Frequency(36) 3346.5084
C     1.371648    0.528626   -0.014958    0.003374    0.003610   -0.000229
C     1.303467   -0.793826    0.095774   -0.002190   -0.001130    0.000076
N    -0.002604   -1.422636    0.116401   -0.017791   -0.119027    0.007152
C    -1.332534   -0.610318    0.008053    0.005831   -0.001006    0.000269
N    -1.080943    0.709590   -0.097399    0.000702    0.000196    0.000001
C     0.172585    1.399365   -0.122226    0.000024   -0.001441    0.000127
O    -2.343605   -1.219601    0.031054   -0.001876   -0.000442   -0.000016
O     0.201842    2.589471   -0.223244   -0.000003    0.000662   -0.000061
H     2.157853   -1.472377    0.176269   -0.002975    0.003878   -0.000346
H    -0.173769   -2.258600    1.386974    0.146103    0.703479   -1.185935
H    -1.899981    1.304167   -0.172749   -0.021066    0.019089   -0.002301
H     2.348017    1.044364   -0.032946   -0.027733   -0.012323    0.000279
H    -0.110814   -2.479460   -1.010633    0.089070    0.933253    1.087230
13
* Frequency(36) 3346.5084
C     1.371804    0.528793   -0.014969    0.003374    0.003610   -0.000229
C     1.303366   -0.793878    0.095778   -0.002190   -0.001130    0.000076
N    -0.003427   -1.428144    0.116732   -0.017791   -0.119027    0.007152
C    -1.332264   -0.610364    0.008066    0.005831   -0.001006    0.000269
N    -1.080911    0.709600   -0.097399    0.000702    0.000196    0.000001
C     0.172586    1.399298   -0.122220    0.000024   -0.001441    0.000127
O    -2.343692   -1.219621    0.031053   -0.001876   -0.000442   -0.000016
O     0.201842    2.589501   -0.223247   -0.000003    0.000662   -0.000061
H     2.157715   -1.472198    0.176253   -0.002975    0.003878   -0.000346
H    -0.167007   -2.226042    1.332087    0.146103    0.703479   -1.185935
H    -1.900956    1.305050   -0.172856   -0.021066    0.019089   -0.002301
H     2.346733    1.043793   -0.032933   -0.027733   -0.012323    0.000279
H    -0.106692   -2.436268   -0.960314    0.089070    0.933253    1.087230
13
* Frequency(36) 3346.5084
C     1.372067    0.529075   -0.014987    0.003374    0.003610   -0.000229
C     1.303195   -0.793967    0.095784   -0.002190   -0.001130    0.000076
N    -0.004816   -1.437433    0.117290   -0.017791   -0.119027    0.007152
C    -1.331809   -0.610443    0.008087    0.005831   -0.001006    0.000269
N    -1.080856    0.709615   -0.097399    0.000702    0.000196    0.000001
C     0.172588    1.399186   -0.122210    0.000024   -0.001441    0.000127
O    -2.343839   -1.219656    0.031052   -0.001876   -0.000442   -0.000016
O     0.201842    2.589553   -0.223252   -0.000003    0.000662   -0.000061
H     2.157483   -1.471895    0.176226   -0.002975    0.003878   -0.000346
H    -0.155606   -2.171147    1.239544    0.146103    0.703479   -1.185935
H    -1.902600    1.306540   -0.173035   -0.021066    0.019089   -0.002301
H     2.344569    1.042832   -0.032911   -0.027733   -0.012323    0.000279
H    -0.099741   -2.363443   -0.875474    0.089070    0.933253    1.087230
13
* Frequency(36) 3346.5084
C     1.372409    0.529441   -0.015010    0.003374    0.003610   -0.000229
C     1.302973   -0.794081    0.095792   -0.002190   -0.001130    0.000076
N    -0.006618   -1.449494    0.118014   -0.017791   -0.119027    0.007152
C    -1.331218   -0.610545    0.008114    0.005831   -0.001006    0.000269
N    -1.080785    0.709635   -0.097399    0.000702    0.000196    0.000001
C     0.172591    1.399040   -0.122197    0.000024   -0.001441    0.000127
O    -2.344029   -1.219701    0.031051   -0.001876   -0.000442   -0.000016
O     0.201842    2.589620   -0.223258   -0.000003    0.000662   -0.000061
H     2.157182   -1.471502    0.176191   -0.002975    0.003878   -0.000346
H    -0.140801   -2.099863    1.119374    0.146103    0.703479   -1.185935
H    -1.904735    1.308474   -0.173268   -0.021066    0.019089   -0.002301
H     2.341759    1.041583   -0.032883   -0.027733   -0.012323    0.000279
H    -0.090716   -2.268876   -0.765305    0.089070    0.933253    1.087230
13
* Frequency(36) 3346.5084
C     1.372793    0.529851   -0.015036    0.003374    0.003610   -0.000229
C     1.302724   -0.794210    0.095800   -0.002190   -0.001130    0.000076
N    -0.008640   -1.463020    0.118827   -0.017791   -0.119027    0.007152
C    -1.330555   -0.610659    0.008144    0.005831   -0.001006    0.000269
N    -1.080705    0.709657   -0.097399    0.000702    0.000196    0.000001
C     0.172593    1.398876   -0.122183    0.000024   -0.001441    0.000127
O    -2.344242   -1.219751    0.031049   -0.001876   -0.000442   -0.000016
O     0.201841    2.589695   -0.223265   -0.000003    0.000662   -0.000061
H     2.156844   -1.471062    0.176152   -0.002975    0.003878   -0.000346
H    -0.124198   -2.019917    0.984598    0.146103    0.703479   -1.185935
H    -1.907129    1.310644   -0.173530   -0.021066    0.019089   -0.002301
H     2.338608    1.040183   -0.032851   -0.027733   -0.012323    0.000279
H    -0.080594   -2.162817   -0.641747    0.089070    0.933253    1.087230
