13
* (null), Energy   -1000.0000000
C     1.628522    0.403282    0.009825   -0.002355    0.051174   -0.004450
C     1.558257   -0.920826    0.121541   -0.009809   -0.031068    0.002420
N     0.246846   -1.589915    0.143551    0.038501    0.134687   -0.010619
C    -1.074947   -0.737408    0.033678   -0.006258    0.012135   -0.001275
N    -0.825093    0.582903   -0.073451   -0.000067   -0.002010    0.000172
C     0.428005    1.271956   -0.097784   -0.001406    0.000122   -0.000050
O    -2.088804   -1.345922    0.058464    0.001512    0.001899   -0.000121
O     0.457572    2.462843   -0.197982    0.001899   -0.005841    0.000547
H     2.412149   -1.597989    0.202997    0.010152   -0.006923    0.000877
H     0.131582   -2.147641    1.008616   -0.177488   -1.146241   -0.801209
H    -1.651708    1.183769   -0.147738    0.001959   -0.000911    0.000147
H     2.594425    0.913409   -0.007422    0.040862   -0.021091    0.002927
H     0.175864   -2.288698   -0.617572   -0.227434   -0.991532    0.975637
13
* Frequency(30) 1572.8994
C     1.628255    0.409097    0.009320   -0.002355    0.051174   -0.004450
C     1.557142   -0.924356    0.121816   -0.009809   -0.031068    0.002420
N     0.251221   -1.574608    0.142344    0.038501    0.134687   -0.010619
C    -1.075659   -0.736029    0.033533   -0.006258    0.012135   -0.001275
N    -0.825100    0.582675   -0.073431   -0.000067   -0.002010    0.000172
C     0.427845    1.271970   -0.097790   -0.001406    0.000122   -0.000050
O    -2.088632   -1.345706    0.058451    0.001512    0.001899   -0.000121
O     0.457788    2.462179   -0.197920    0.001899   -0.005841    0.000547
H     2.413302   -1.598776    0.203096    0.010152   -0.006923    0.000877
H     0.111412   -2.277906    0.917562   -0.177488   -1.146241   -0.801209
H    -1.651485    1.183666   -0.147721    0.001959   -0.000911    0.000147
H     2.599069    0.911012   -0.007089    0.040862   -0.021091    0.002927
H     0.150017   -2.401381   -0.506696   -0.227434   -0.991532    0.975637
13
* Frequency(30) 1572.8994
C     1.628016    0.414283    0.008869   -0.002355    0.051174   -0.004450
C     1.556148   -0.927505    0.122062   -0.009809   -0.031068    0.002420
N     0.255122   -1.560960    0.141268    0.038501    0.134687   -0.010619
C    -1.076293   -0.734799    0.033404   -0.006258    0.012135   -0.001275
N    -0.825107    0.582471   -0.073414   -0.000067   -0.002010    0.000172
C     0.427703    1.271982   -0.097795   -0.001406    0.000122   -0.000050
O    -2.088479   -1.345513    0.058438    0.001512    0.001899   -0.000121
O     0.457980    2.461587   -0.197865    0.001899   -0.005841    0.000547
H     2.414331   -1.599477    0.203185    0.010152   -0.006923    0.000877
H     0.093427   -2.394054    0.836376   -0.177488   -1.146241   -0.801209
H    -1.651287    1.183574   -0.147706    0.001959   -0.000911    0.000147
H     2.603209    0.908875   -0.006793    0.040862   -0.021091    0.002927
H     0.126972   -2.501853   -0.407835   -0.227434   -0.991532    0.975637
13
* Frequency(30) 1572.8994
C     1.627832    0.418276    0.008522   -0.002355    0.051174   -0.004450
C     1.555383   -0.929929    0.122250   -0.009809   -0.031068    0.002420
N     0.258127   -1.550450    0.140440    0.038501    0.134687   -0.010619
C    -1.076781   -0.733852    0.033304   -0.006258    0.012135   -0.001275
N    -0.825112    0.582314   -0.073401   -0.000067   -0.002010    0.000172
C     0.427593    1.271992   -0.097799   -0.001406    0.000122   -0.000050
O    -2.088361   -1.345365    0.058429    0.001512    0.001899   -0.000121
O     0.458129    2.461131   -0.197822    0.001899   -0.005841    0.000547
H     2.415123   -1.600017    0.203254    0.010152   -0.006923    0.000877
H     0.079577   -2.483499    0.773855   -0.177488   -1.146241   -0.801209
H    -1.651134    1.183502   -0.147695    0.001959   -0.000911    0.000147
H     2.606398    0.907229   -0.006565    0.040862   -0.021091    0.002927
H     0.109224   -2.579226   -0.331702   -0.227434   -0.991532    0.975637
13
* Frequency(30) 1572.8994
C     1.627723    0.420644    0.008316   -0.002355    0.051174   -0.004450
C     1.554929   -0.931367    0.122362   -0.009809   -0.031068    0.002420
N     0.259909   -1.544217    0.139948    0.038501    0.134687   -0.010619
C    -1.077071   -0.733291    0.033245   -0.006258    0.012135   -0.001275
N    -0.825116    0.582221   -0.073393   -0.000067   -0.002010    0.000172
C     0.427528    1.271997   -0.097801   -0.001406    0.000122   -0.000050
O    -2.088291   -1.345277    0.058423    0.001512    0.001899   -0.000121
O     0.458216    2.460861   -0.197797    0.001899   -0.005841    0.000547
H     2.415593   -1.600338    0.203294    0.010152   -0.006923    0.000877
H     0.071362   -2.536549    0.736773   -0.177488   -1.146241   -0.801209
H    -1.651043    1.183460   -0.147688    0.001959   -0.000911    0.000147
H     2.608289    0.906253   -0.006429    0.040862   -0.021091    0.002927
H     0.098698   -2.625116   -0.286548   -0.227434   -0.991532    0.975637
13
* Frequency(30) 1572.8994
C     1.627701    0.421131    0.008273   -0.002355    0.051174   -0.004450
C     1.554836   -0.931662    0.122385   -0.009809   -0.031068    0.002420
N     0.260275   -1.542935    0.139847    0.038501    0.134687   -0.010619
C    -1.077130   -0.733175    0.033233   -0.006258    0.012135   -0.001275
N    -0.825116    0.582202   -0.073391   -0.000067   -0.002010    0.000172
C     0.427515    1.271998   -0.097802   -0.001406    0.000122   -0.000050
O    -2.088277   -1.345259    0.058422    0.001512    0.001899   -0.000121
O     0.458235    2.460805   -0.197791    0.001899   -0.005841    0.000547
H     2.415689   -1.600404    0.203303    0.010152   -0.006923    0.000877
H     0.069674   -2.547455    0.729150   -0.177488   -1.146241   -0.801209
H    -1.651025    1.183452   -0.147687    0.001959   -0.000911    0.000147
H     2.608678    0.906052   -0.006401    0.040862   -0.021091    0.002927
H     0.096534   -2.634549   -0.277265   -0.227434   -0.991532    0.975637
13
* Frequency(30) 1572.8994
C     1.627768    0.419684    0.008399   -0.002355    0.051174   -0.004450
C     1.555113   -0.930784    0.122317   -0.009809   -0.031068    0.002420
N     0.259186   -1.546745    0.140147    0.038501    0.134687   -0.010619
C    -1.076953   -0.733519    0.033269   -0.006258    0.012135   -0.001275
N    -0.825114    0.582259   -0.073396   -0.000067   -0.002010    0.000172
C     0.427554    1.271995   -0.097800   -0.001406    0.000122   -0.000050
O    -2.088320   -1.345313    0.058426    0.001512    0.001899   -0.000121
O     0.458181    2.460970   -0.197807    0.001899   -0.005841    0.000547
H     2.415402   -1.600208    0.203278    0.010152   -0.006923    0.000877
H     0.074694   -2.515035    0.751812   -0.177488   -1.146241   -0.801209
H    -1.651080    1.183477   -0.147691    0.001959   -0.000911    0.000147
H     2.607522    0.906649   -0.006484    0.040862   -0.021091    0.002927
H     0.102967   -2.606505   -0.304860   -0.227434   -0.991532    0.975637
13
* Frequency(30) 1572.8994
C     1.627916    0.416459    0.008680   -0.002355    0.051174   -0.004450
C     1.555731   -0.928826    0.122165   -0.009809   -0.031068    0.002420
N     0.256760   -1.555232    0.140817    0.038501    0.134687   -0.010619
C    -1.076559   -0.734283    0.033349   -0.006258    0.012135   -0.001275
N    -0.825110    0.582386   -0.073407   -0.000067   -0.002010    0.000172
C     0.427643    1.271987   -0.097797   -0.001406    0.000122   -0.000050
O    -2.088415   -1.345433    0.058433    0.001512    0.001899   -0.000121
O     0.458061    2.461338   -0.197841    0.001899   -0.005841    0.000547
H     2.414763   -1.599771    0.203223    0.010152   -0.006923    0.000877
H     0.085878   -2.442802    0.802302   -0.177488   -1.146241   -0.801209
H    -1.651204    1.183535   -0.147700    0.001959   -0.000911    0.000147
H     2.604947    0.907978   -0.006668    0.040862   -0.021091    0.002927
H     0.117299   -2.544021   -0.366342   -0.227434   -0.991532    0.975637
13
* Frequency(30) 1572.8994
C     1.628130    0.411806    0.009084   -0.002355    0.051174   -0.004450
C     1.556623   -0.926001    0.121944   -0.009809   -0.031068    0.002420
N     0.253259   -1.567478    0.141782    0.038501    0.134687   -0.010619
C    -1.075990   -0.735387    0.033465   -0.006258    0.012135   -0.001275
N    -0.825104    0.582569   -0.073422   -0.000067   -0.002010    0.000172
C     0.427771    1.271976   -0.097792   -0.001406    0.000122   -0.000050
O    -2.088552   -1.345605    0.058444    0.001512    0.001899   -0.000121
O     0.457888    2.461870   -0.197891    0.001899   -0.005841    0.000547
H     2.413840   -1.599142    0.203143    0.010152   -0.006923    0.000877
H     0.102016   -2.338584    0.875149   -0.177488   -1.146241   -0.801209
H    -1.651382    1.183618   -0.147714    0.001959   -0.000911    0.000147
H     2.601232    0.909896   -0.006935    0.040862   -0.021091    0.002927
H     0.137978   -2.453869   -0.455049   -0.227434   -0.991532    0.975637
13
* Frequency(30) 1572.8994
C     1.628387    0.406230    0.009569   -0.002355    0.051174   -0.004450
C     1.557692   -0.922615    0.121681   -0.009809   -0.031068    0.002420
N     0.249064   -1.582155    0.142939    0.038501    0.134687   -0.010619
C    -1.075308   -0.736709    0.033604   -0.006258    0.012135   -0.001275
N    -0.825097    0.582788   -0.073441   -0.000067   -0.002010    0.000172
C     0.427924    1.271963   -0.097787   -0.001406    0.000122   -0.000050
O    -2.088717   -1.345812    0.058457    0.001512    0.001899   -0.000121
O     0.457682    2.462506   -0.197951    0.001899   -0.005841    0.000547
H     2.412733   -1.598388    0.203047    0.010152   -0.006923    0.000877
H     0.121358   -2.213674    0.962460   -0.177488   -1.146241   -0.801209
H    -1.651595    1.183717   -0.147730    0.001959   -0.000911    0.000147
H     2.596779    0.912194   -0.007253    0.040862   -0.021091    0.002927
H     0.162762   -2.345819   -0.561368   -0.227434   -0.991532    0.975637
13
* Frequency(30) 1572.8994
C     1.628658    0.400334    0.010082   -0.002355    0.051174   -0.004450
C     1.558822   -0.919036    0.121402   -0.009809   -0.031068    0.002420
N     0.244628   -1.597674    0.144163    0.038501    0.134687   -0.010619
C    -1.074587   -0.738107    0.033751   -0.006258    0.012135   -0.001275
N    -0.825089    0.583019   -0.073461   -0.000067   -0.002010    0.000172
C     0.428086    1.271949   -0.097781   -0.001406    0.000122   -0.000050
O    -2.088891   -1.346031    0.058471    0.001512    0.001899   -0.000121
O     0.457463    2.463179   -0.198014    0.001899   -0.005841    0.000547
H     2.411564   -1.597590    0.202946    0.010152   -0.006923    0.000877
H     0.141807   -2.081609    1.054772   -0.177488   -1.146241   -0.801209
H    -1.651821    1.183822   -0.147747    0.001959   -0.000911    0.000147
H     2.592071    0.914624   -0.007591    0.040862   -0.021091    0.002927
H     0.188966   -2.231578   -0.673777   -0.227434   -0.991532    0.975637
13
* Frequency(30) 1572.8994
C     1.628915    0.394757    0.010567   -0.002355    0.051174   -0.004450
C     1.559891   -0.915650    0.121138   -0.009809   -0.031068    0.002420
N     0.240432   -1.612351    0.145320    0.038501    0.134687   -0.010619
C    -1.073905   -0.739429    0.033890   -0.006258    0.012135   -0.001275
N    -0.825082    0.583238   -0.073480   -0.000067   -0.002010    0.000172
C     0.428239    1.271935   -0.097776   -0.001406    0.000122   -0.000050
O    -2.089056   -1.346238    0.058484    0.001512    0.001899   -0.000121
O     0.457256    2.463816   -0.198073    0.001899   -0.005841    0.000547
H     2.410457   -1.596836    0.202851    0.010152   -0.006923    0.000877
H     0.161149   -1.956699    1.142082   -0.177488   -1.146241   -0.801209
H    -1.652034    1.183921   -0.147763    0.001959   -0.000911    0.000147
H     2.587618    0.916923   -0.007910    0.040862   -0.021091    0.002927
H     0.213750   -2.123527   -0.780095   -0.227434   -0.991532    0.975637
13
* Frequency(30) 1572.8994
C     1.629129    0.390104    0.010971   -0.002355    0.051174   -0.004450
C     1.560783   -0.912826    0.120918   -0.009809   -0.031068    0.002420
N     0.236931   -1.624597    0.146285    0.038501    0.134687   -0.010619
C    -1.073336   -0.740533    0.034006   -0.006258    0.012135   -0.001275
N    -0.825076    0.583421   -0.073495   -0.000067   -0.002010    0.000172
C     0.428367    1.271924   -0.097771   -0.001406    0.000122   -0.000050
O    -2.089194   -1.346411    0.058495    0.001512    0.001899   -0.000121
O     0.457083    2.464347   -0.198123    0.001899   -0.005841    0.000547
H     2.409534   -1.596206    0.202771    0.010152   -0.006923    0.000877
H     0.177286   -1.852481    1.214930   -0.177488   -1.146241   -0.801209
H    -1.652212    1.184004   -0.147776    0.001959   -0.000911    0.000147
H     2.583903    0.918840   -0.008176    0.040862   -0.021091    0.002927
H     0.234429   -2.033375   -0.868802   -0.227434   -0.991532    0.975637
13
* Frequency(30) 1572.8994
C     1.629277    0.386879    0.011252   -0.002355    0.051174   -0.004450
C     1.561401   -0.910868    0.120766   -0.009809   -0.031068    0.002420
N     0.234505   -1.633084    0.146955    0.038501    0.134687   -0.010619
C    -1.072942   -0.741297    0.034087   -0.006258    0.012135   -0.001275
N    -0.825071    0.583548   -0.073506   -0.000067   -0.002010    0.000172
C     0.428455    1.271917   -0.097768   -0.001406    0.000122   -0.000050
O    -2.089289   -1.346530    0.058503    0.001512    0.001899   -0.000121
O     0.456963    2.464715   -0.198158    0.001899   -0.005841    0.000547
H     2.408895   -1.595770    0.202715    0.010152   -0.006923    0.000877
H     0.188471   -1.780248    1.265420   -0.177488   -1.146241   -0.801209
H    -1.652336    1.184062   -0.147785    0.001959   -0.000911    0.000147
H     2.581328    0.920169   -0.008360    0.040862   -0.021091    0.002927
H     0.248761   -1.970892   -0.930284   -0.227434   -0.991532    0.975637
13
* Frequency(30) 1572.8994
C     1.629344    0.385432    0.011377   -0.002355    0.051174   -0.004450
C     1.561679   -0.909989    0.120697   -0.009809   -0.031068    0.002420
N     0.233416   -1.636894    0.147255    0.038501    0.134687   -0.010619
C    -1.072765   -0.741641    0.034123   -0.006258    0.012135   -0.001275
N    -0.825069    0.583604   -0.073511   -0.000067   -0.002010    0.000172
C     0.428495    1.271913   -0.097767   -0.001406    0.000122   -0.000050
O    -2.089332   -1.346584    0.058506    0.001512    0.001899   -0.000121
O     0.456910    2.464880   -0.198173    0.001899   -0.005841    0.000547
H     2.408608   -1.595574    0.202691    0.010152   -0.006923    0.000877
H     0.193491   -1.747827    1.288081   -0.177488   -1.146241   -0.801209
H    -1.652391    1.184087   -0.147789    0.001959   -0.000911    0.000147
H     2.580172    0.920766   -0.008443    0.040862   -0.021091    0.002927
H     0.255194   -1.942847   -0.957879   -0.227434   -0.991532    0.975637
13
* Frequency(30) 1572.8994
C     1.629321    0.385919    0.011335   -0.002355    0.051174   -0.004450
C     1.561585   -0.910285    0.120720   -0.009809   -0.031068    0.002420
N     0.233783   -1.635612    0.147154    0.038501    0.134687   -0.010619
C    -1.072824   -0.741525    0.034110   -0.006258    0.012135   -0.001275
N    -0.825070    0.583585   -0.073509   -0.000067   -0.002010    0.000172
C     0.428482    1.271914   -0.097767   -0.001406    0.000122   -0.000050
O    -2.089317   -1.346566    0.058505    0.001512    0.001899   -0.000121
O     0.456928    2.464825   -0.198168    0.001899   -0.005841    0.000547
H     2.408704   -1.595640    0.202699    0.010152   -0.006923    0.000877
H     0.191802   -1.758733    1.280458   -0.177488   -1.146241   -0.801209
H    -1.652373    1.184079   -0.147788    0.001959   -0.000911    0.000147
H     2.580561    0.920565   -0.008415    0.040862   -0.021091    0.002927
H     0.253030   -1.952281   -0.948596   -0.227434   -0.991532    0.975637
13
* Frequency(30) 1572.8994
C     1.629212    0.388287    0.011129   -0.002355    0.051174   -0.004450
C     1.561131   -0.911723    0.120832   -0.009809   -0.031068    0.002420
N     0.235564   -1.629379    0.146662    0.038501    0.134687   -0.010619
C    -1.073114   -0.740963    0.034051   -0.006258    0.012135   -0.001275
N    -0.825073    0.583492   -0.073501   -0.000067   -0.002010    0.000172
C     0.428417    1.271920   -0.097769   -0.001406    0.000122   -0.000050
O    -2.089247   -1.346478    0.058500    0.001512    0.001899   -0.000121
O     0.457016    2.464554   -0.198142    0.001899   -0.005841    0.000547
H     2.409174   -1.595960    0.202740    0.010152   -0.006923    0.000877
H     0.183588   -1.811783    1.243376   -0.177488   -1.146241   -0.801209
H    -1.652282    1.184036   -0.147781    0.001959   -0.000911    0.000147
H     2.582452    0.919589   -0.008280    0.040862   -0.021091    0.002927
H     0.242504   -1.998171   -0.903442   -0.227434   -0.991532    0.975637
13
* Frequency(30) 1572.8994
C     1.629028    0.392281    0.010782   -0.002355    0.051174   -0.004450
C     1.560366   -0.914147    0.121021   -0.009809   -0.031068    0.002420
N     0.238569   -1.618869    0.145834    0.038501    0.134687   -0.010619
C    -1.073602   -0.740017    0.033952   -0.006258    0.012135   -0.001275
N    -0.825078    0.583335   -0.073488   -0.000067   -0.002010    0.000172
C     0.428307    1.271930   -0.097773   -0.001406    0.000122   -0.000050
O    -2.089129   -1.346330    0.058490    0.001512    0.001899   -0.000121
O     0.457164    2.464098   -0.198100    0.001899   -0.005841    0.000547
H     2.409966   -1.596501    0.202808    0.010152   -0.006923    0.000877
H     0.169738   -1.901229    1.180855   -0.177488   -1.146241   -0.801209
H    -1.652129    1.183965   -0.147770    0.001959   -0.000911    0.000147
H     2.585641    0.917943   -0.008051    0.040862   -0.021091    0.002927
H     0.224756   -2.075544   -0.827309   -0.227434   -0.991532    0.975637
13
* Frequency(30) 1572.8994
C     1.628790    0.397466    0.010331   -0.002355    0.051174   -0.004450
C     1.559372   -0.917295    0.121266   -0.009809   -0.031068    0.002420
N     0.242470   -1.605221    0.144758    0.038501    0.134687   -0.010619
C    -1.074236   -0.738787    0.033823   -0.006258    0.012135   -0.001275
N    -0.825085    0.583132   -0.073471   -0.000067   -0.002010    0.000172
C     0.428165    1.271942   -0.097778   -0.001406    0.000122   -0.000050
O    -2.088976   -1.346137    0.058478    0.001512    0.001899   -0.000121
O     0.457356    2.463506   -0.198044    0.001899   -0.005841    0.000547
H     2.410995   -1.597202    0.202897    0.010152   -0.006923    0.000877
H     0.151753   -2.017377    1.099669   -0.177488   -1.146241   -0.801209
H    -1.651931    1.183873   -0.147755    0.001959   -0.000911    0.000147
H     2.589781    0.915806   -0.007755    0.040862   -0.021091    0.002927
H     0.201711   -2.176016   -0.728448   -0.227434   -0.991532    0.975637
13
* Frequency(30) 1572.8994
C     1.628522    0.403282    0.009825   -0.002355    0.051174   -0.004450
C     1.558257   -0.920826    0.121541   -0.009809   -0.031068    0.002420
N     0.246846   -1.589915    0.143551    0.038501    0.134687   -0.010619
C    -1.074947   -0.737408    0.033678   -0.006258    0.012135   -0.001275
N    -0.825093    0.582903   -0.073451   -0.000067   -0.002010    0.000172
C     0.428005    1.271956   -0.097784   -0.001406    0.000122   -0.000050
O    -2.088804   -1.345922    0.058464    0.001512    0.001899   -0.000121
O     0.457572    2.462843   -0.197982    0.001899   -0.005841    0.000547
H     2.412149   -1.597989    0.202997    0.010152   -0.006923    0.000877
H     0.131582   -2.147641    1.008616   -0.177488   -1.146241   -0.801209
H    -1.651708    1.183769   -0.147738    0.001959   -0.000911    0.000147
H     2.594425    0.913409   -0.007422    0.040862   -0.021091    0.002927
H     0.175864   -2.288698   -0.617572   -0.227434   -0.991532    0.975637
