13
* (null), Energy   -1000.0000000
C     1.628522    0.403282    0.009825   -0.313627   -0.026595   -0.005173
C     1.558257   -0.920826    0.121541   -0.173849    0.027272   -0.007482
N     0.246846   -1.589915    0.143551   -0.170660    0.388601   -0.038161
C    -1.074947   -0.737408    0.033678   -0.157147    0.136810   -0.015003
N    -0.825093    0.582903   -0.073451   -0.573642    0.340353   -0.047289
C     0.428005    1.271956   -0.097784   -0.166427    0.068283   -0.010220
O    -2.088804   -1.345922    0.058464    0.447274   -0.902821    0.090350
O     0.457572    2.462843   -0.197982    0.935888    0.033724    0.023212
H     2.412149   -1.597989    0.202997   -0.208061   -0.010381   -0.005816
H     0.131582   -2.147641    1.008616   -0.351729    0.385648   -0.066751
H    -1.651708    1.183769   -0.147738   -0.615043    0.292195   -0.047208
H     2.594425    0.913409   -0.007422   -0.416734    0.153550   -0.022663
H     0.175864   -2.288698   -0.617572   -0.355097    0.392005   -0.021265
13
* Frequency(9)  387.9400
C     1.592880    0.400259    0.009238   -0.313627   -0.026595   -0.005173
C     1.538500   -0.917726    0.120691   -0.173849    0.027272   -0.007482
N     0.227451   -1.545752    0.139214   -0.170660    0.388601   -0.038161
C    -1.092806   -0.721860    0.031973   -0.157147    0.136810   -0.015003
N    -0.890284    0.621583   -0.078825   -0.573642    0.340353   -0.047289
C     0.409091    1.279716   -0.098946   -0.166427    0.068283   -0.010220
O    -2.037974   -1.448523    0.068732    0.447274   -0.902821    0.090350
O     0.563931    2.466675   -0.195344    0.935888    0.033724    0.023212
H     2.388503   -1.599169    0.202336   -0.208061   -0.010381   -0.005816
H     0.091610   -2.103814    1.001030   -0.351729    0.385648   -0.066751
H    -1.721604    1.216976   -0.153103   -0.615043    0.292195   -0.047208
H     2.547065    0.930859   -0.009998   -0.416734    0.153550   -0.022663
H     0.135509   -2.244149   -0.619989   -0.355097    0.392005   -0.021265
13
* Frequency(9)  387.9400
C     1.561100    0.397564    0.008713   -0.313627   -0.026595   -0.005173
C     1.520884   -0.914963    0.119933   -0.173849    0.027272   -0.007482
N     0.210158   -1.506375    0.135347   -0.170660    0.388601   -0.038161
C    -1.108730   -0.707997    0.030453   -0.157147    0.136810   -0.015003
N    -0.948411    0.656071   -0.083617   -0.573642    0.340353   -0.047289
C     0.392227    1.286635   -0.099981   -0.166427    0.068283   -0.010220
O    -1.992652   -1.540005    0.077887    0.447274   -0.902821    0.090350
O     0.658764    2.470092   -0.192992    0.935888    0.033724    0.023212
H     2.367421   -1.600220    0.201746   -0.208061   -0.010381   -0.005816
H     0.055970   -2.064737    0.994266   -0.351729    0.385648   -0.066751
H    -1.783926    1.246584   -0.157887   -0.615043    0.292195   -0.047208
H     2.504838    0.946418   -0.012294   -0.416734    0.153550   -0.022663
H     0.099527   -2.204427   -0.622144   -0.355097    0.392005   -0.021265
13
* Frequency(9)  387.9400
C     1.536627    0.395489    0.008310   -0.313627   -0.026595   -0.005173
C     1.507318   -0.912835    0.119349   -0.173849    0.027272   -0.007482
N     0.196841   -1.476051    0.132369   -0.170660    0.388601   -0.038161
C    -1.120993   -0.697322    0.029282   -0.157147    0.136810   -0.015003
N    -0.993175    0.682630   -0.087307   -0.573642    0.340353   -0.047289
C     0.379241    1.291963   -0.100779   -0.166427    0.068283   -0.010220
O    -1.957749   -1.610456    0.084937    0.447274   -0.902821    0.090350
O     0.731795    2.472724   -0.191181    0.935888    0.033724    0.023212
H     2.351185   -1.601031    0.201292   -0.208061   -0.010381   -0.005816
H     0.028523   -2.034643    0.989057   -0.351729    0.385648   -0.066751
H    -1.831921    1.269385   -0.161570   -0.615043    0.292195   -0.047208
H     2.472318    0.958400   -0.014062   -0.416734    0.153550   -0.022663
H     0.071818   -2.173838   -0.623803   -0.355097    0.392005   -0.021265
13
* Frequency(9)  387.9400
C     1.522112    0.394258    0.008070   -0.313627   -0.026595   -0.005173
C     1.499272   -0.911573    0.119003   -0.173849    0.027272   -0.007482
N     0.188942   -1.458066    0.130603   -0.170660    0.388601   -0.038161
C    -1.128266   -0.690990    0.028587   -0.157147    0.136810   -0.015003
N    -1.019724    0.698382   -0.089496   -0.573642    0.340353   -0.047289
C     0.371538    1.295124   -0.101252   -0.166427    0.068283   -0.010220
O    -1.937049   -1.652240    0.089119    0.447274   -0.902821    0.090350
O     0.775110    2.474285   -0.190107    0.935888    0.033724    0.023212
H     2.341555   -1.601511    0.201023   -0.208061   -0.010381   -0.005816
H     0.012244   -2.016795    0.985968   -0.351729    0.385648   -0.066751
H    -1.860386    1.282908   -0.163755   -0.615043    0.292195   -0.047208
H     2.453031    0.965507   -0.015111   -0.416734    0.153550   -0.022663
H     0.055383   -2.155695   -0.624787   -0.355097    0.392005   -0.021265
13
* Frequency(9)  387.9400
C     1.519128    0.394005    0.008021   -0.313627   -0.026595   -0.005173
C     1.497618   -0.911313    0.118932   -0.173849    0.027272   -0.007482
N     0.187319   -1.454369    0.130240   -0.170660    0.388601   -0.038161
C    -1.129761   -0.689688    0.028445   -0.157147    0.136810   -0.015003
N    -1.025182    0.701620   -0.089946   -0.573642    0.340353   -0.047289
C     0.369955    1.295773   -0.101349   -0.166427    0.068283   -0.010220
O    -1.932793   -1.660830    0.089979    0.447274   -0.902821    0.090350
O     0.784014    2.474606   -0.189886    0.935888    0.033724    0.023212
H     2.339576   -1.601610    0.200968   -0.208061   -0.010381   -0.005816
H     0.008898   -2.013126    0.985333   -0.351729    0.385648   -0.066751
H    -1.866238    1.285689   -0.164205   -0.615043    0.292195   -0.047208
H     2.449066    0.966968   -0.015327   -0.416734    0.153550   -0.022663
H     0.052005   -2.151965   -0.624989   -0.355097    0.392005   -0.021265
13
* Frequency(9)  387.9400
C     1.527998    0.394757    0.008167   -0.313627   -0.026595   -0.005173
C     1.502535   -0.912085    0.119143   -0.173849    0.027272   -0.007482
N     0.192145   -1.465360    0.131320   -0.170660    0.388601   -0.038161
C    -1.125316   -0.693558    0.028869   -0.157147    0.136810   -0.015003
N    -1.008957    0.691994   -0.088608   -0.573642    0.340353   -0.047289
C     0.374662    1.293842   -0.101060   -0.166427    0.068283   -0.010220
O    -1.945444   -1.635294    0.087423    0.447274   -0.902821    0.090350
O     0.757543    2.473652   -0.190542    0.935888    0.033724    0.023212
H     2.345461   -1.601316    0.201132   -0.208061   -0.010381   -0.005816
H     0.018846   -2.024033    0.987221   -0.351729    0.385648   -0.066751
H    -1.848842    1.277424   -0.162869   -0.615043    0.292195   -0.047208
H     2.460853    0.962625   -0.014686   -0.416734    0.153550   -0.022663
H     0.062048   -2.163053   -0.624388   -0.355097    0.392005   -0.021265
13
* Frequency(9)  387.9400
C     1.547762    0.396433    0.008493   -0.313627   -0.026595   -0.005173
C     1.513491   -0.913803    0.119615   -0.173849    0.027272   -0.007482
N     0.202900   -1.489849    0.133724   -0.170660    0.388601   -0.038161
C    -1.115413   -0.702179    0.029815   -0.157147    0.136810   -0.015003
N    -0.972808    0.670546   -0.085628   -0.573642    0.340353   -0.047289
C     0.385149    1.289539   -0.100416   -0.166427    0.068283   -0.010220
O    -1.973630   -1.578401    0.081730    0.447274   -0.902821    0.090350
O     0.698566    2.471527   -0.192005    0.935888    0.033724    0.023212
H     2.358572   -1.600662    0.201499   -0.208061   -0.010381   -0.005816
H     0.041011   -2.048336    0.991427   -0.351729    0.385648   -0.066751
H    -1.810084    1.259011   -0.159894   -0.615043    0.292195   -0.047208
H     2.487115    0.952949   -0.013258   -0.416734    0.153550   -0.022663
H     0.084425   -2.187756   -0.623048   -0.355097    0.392005   -0.021265
13
* Frequency(9)  387.9400
C     1.576278    0.398851    0.008964   -0.313627   -0.026595   -0.005173
C     1.529297   -0.916283    0.120295   -0.173849    0.027272   -0.007482
N     0.218417   -1.525181    0.137194   -0.170660    0.388601   -0.038161
C    -1.101125   -0.714618    0.031179   -0.157147    0.136810   -0.015003
N    -0.920651    0.639600   -0.081329   -0.573642    0.340353   -0.047289
C     0.400281    1.283331   -0.099487   -0.166427    0.068283   -0.010220
O    -2.014297   -1.496315    0.073515    0.447274   -0.902821    0.090350
O     0.613474    2.468460   -0.194116    0.935888    0.033724    0.023212
H     2.377489   -1.599718    0.202028   -0.208061   -0.010381   -0.005816
H     0.072991   -2.083400    0.997496   -0.351729    0.385648   -0.066751
H    -1.754163    1.232444   -0.155602   -0.615043    0.292195   -0.047208
H     2.525005    0.938988   -0.011197   -0.416734    0.153550   -0.022663
H     0.116711   -2.223398   -0.621115   -0.355097    0.392005   -0.021265
13
* Frequency(9)  387.9400
C     1.610455    0.401750    0.009527   -0.313627   -0.026595   -0.005173
C     1.548242   -0.919255    0.121110   -0.173849    0.027272   -0.007482
N     0.237014   -1.567528    0.141353   -0.170660    0.388601   -0.038161
C    -1.084000   -0.729527    0.032814   -0.157147    0.136810   -0.015003
N    -0.858139    0.602511   -0.076175   -0.573642    0.340353   -0.047289
C     0.418417    1.275890   -0.098373   -0.166427    0.068283   -0.010220
O    -2.063038   -1.397931    0.063669    0.447274   -0.902821    0.090350
O     0.511487    2.464785   -0.196645    0.935888    0.033724    0.023212
H     2.400163   -1.598587    0.202662   -0.208061   -0.010381   -0.005816
H     0.111320   -2.125425    1.004770   -0.351729    0.385648   -0.066751
H    -1.687139    1.200602   -0.150458   -0.615043    0.292195   -0.047208
H     2.570418    0.922255   -0.008728   -0.416734    0.153550   -0.022663
H     0.155408   -2.266116   -0.618797   -0.355097    0.392005   -0.021265
13
* Frequency(9)  387.9400
C     1.646590    0.404814    0.010123   -0.313627   -0.026595   -0.005173
C     1.568272   -0.922397    0.121972   -0.173849    0.027272   -0.007482
N     0.256677   -1.612301    0.145749   -0.170660    0.388601   -0.038161
C    -1.065894   -0.745289    0.034542   -0.157147    0.136810   -0.015003
N    -0.792046    0.563296   -0.070727   -0.573642    0.340353   -0.047289
C     0.437592    1.268022   -0.097195   -0.166427    0.068283   -0.010220
O    -2.114571   -1.293912    0.053259    0.447274   -0.902821    0.090350
O     0.403657    2.460900   -0.199319    0.935888    0.033724    0.023212
H     2.424135   -1.597391    0.203332   -0.208061   -0.010381   -0.005816
H     0.151845   -2.169858    1.012461   -0.351729    0.385648   -0.066751
H    -1.616277    1.166937   -0.145019   -0.615043    0.292195   -0.047208
H     2.618432    0.904563   -0.006116   -0.416734    0.153550   -0.022663
H     0.196321   -2.311281   -0.616347   -0.355097    0.392005   -0.021265
13
* Frequency(9)  387.9400
C     1.680767    0.407712    0.010687   -0.313627   -0.026595   -0.005173
C     1.587217   -0.925369    0.122788   -0.173849    0.027272   -0.007482
N     0.275274   -1.654648    0.149908   -0.170660    0.388601   -0.038161
C    -1.048770   -0.760198    0.036177   -0.157147    0.136810   -0.015003
N    -0.729535    0.526207   -0.065574   -0.573642    0.340353   -0.047289
C     0.455729    1.260581   -0.096082   -0.166427    0.068283   -0.010220
O    -2.163312   -1.195528    0.043414    0.447274   -0.902821    0.090350
O     0.301670    2.457225   -0.201849    0.935888    0.033724    0.023212
H     2.446808   -1.596260    0.203966   -0.208061   -0.010381   -0.005816
H     0.190174   -2.211883    1.019735   -0.351729    0.385648   -0.066751
H    -1.549253    1.135095   -0.139874   -0.615043    0.292195   -0.047208
H     2.663845    0.887831   -0.003647   -0.416734    0.153550   -0.022663
H     0.235017   -2.353999   -0.614030   -0.355097    0.392005   -0.021265
13
* Frequency(9)  387.9400
C     1.709282    0.410130    0.011157   -0.313627   -0.026595   -0.005173
C     1.603024   -0.927848    0.123468   -0.173849    0.027272   -0.007482
N     0.290791   -1.689981    0.153378   -0.170660    0.388601   -0.038161
C    -1.034481   -0.772637    0.037541   -0.157147    0.136810   -0.015003
N    -0.677378    0.495261   -0.061274   -0.573642    0.340353   -0.047289
C     0.470860    1.254373   -0.095152   -0.166427    0.068283   -0.010220
O    -2.203979   -1.113442    0.035199    0.447274   -0.902821    0.090350
O     0.216578    2.454159   -0.203959    0.935888    0.033724    0.023212
H     2.465725   -1.595316    0.204494   -0.208061   -0.010381   -0.005816
H     0.222154   -2.246947    1.025804   -0.351729    0.385648   -0.066751
H    -1.493332    1.108528   -0.135582   -0.615043    0.292195   -0.047208
H     2.701735    0.873870   -0.001586   -0.416734    0.153550   -0.022663
H     0.267303   -2.389641   -0.612096   -0.355097    0.392005   -0.021265
13
* Frequency(9)  387.9400
C     1.729046    0.411806    0.011483   -0.313627   -0.026595   -0.005173
C     1.613979   -0.929567    0.123940   -0.173849    0.027272   -0.007482
N     0.301546   -1.714469    0.155782   -0.170660    0.388601   -0.038161
C    -1.024578   -0.781258    0.038487   -0.157147    0.136810   -0.015003
N    -0.641229    0.473813   -0.058294   -0.573642    0.340353   -0.047289
C     0.481348    1.250070   -0.094508   -0.166427    0.068283   -0.010220
O    -2.232165   -1.056549    0.029505    0.447274   -0.902821    0.090350
O     0.157601    2.452033   -0.205422    0.935888    0.033724    0.023212
H     2.478836   -1.594661    0.204861   -0.208061   -0.010381   -0.005816
H     0.244319   -2.271250    1.030011   -0.351729    0.385648   -0.066751
H    -1.454574    1.090115   -0.132607   -0.615043    0.292195   -0.047208
H     2.727997    0.864193   -0.000158   -0.416734    0.153550   -0.022663
H     0.289680   -2.414344   -0.610756   -0.355097    0.392005   -0.021265
13
* Frequency(9)  387.9400
C     1.737917    0.412558    0.011630   -0.313627   -0.026595   -0.005173
C     1.618896   -0.930338    0.124151   -0.173849    0.027272   -0.007482
N     0.306373   -1.725460    0.156862   -0.170660    0.388601   -0.038161
C    -1.020134   -0.785128    0.038911   -0.157147    0.136810   -0.015003
N    -0.625004    0.464187   -0.056956   -0.573642    0.340353   -0.047289
C     0.486055    1.248138   -0.094219   -0.166427    0.068283   -0.010220
O    -2.244815   -1.031014    0.026950    0.447274   -0.902821    0.090350
O     0.131130    2.451080   -0.206079    0.935888    0.033724    0.023212
H     2.484721   -1.594368    0.205025   -0.208061   -0.010381   -0.005816
H     0.254267   -2.282157    1.031899   -0.351729    0.385648   -0.066751
H    -1.437178    1.081850   -0.131272   -0.615043    0.292195   -0.047208
H     2.739783    0.859850    0.000483   -0.416734    0.153550   -0.022663
H     0.299723   -2.425432   -0.610155   -0.355097    0.392005   -0.021265
13
* Frequency(9)  387.9400
C     1.734933    0.412305    0.011580   -0.313627   -0.026595   -0.005173
C     1.617242   -0.930079    0.124080   -0.173849    0.027272   -0.007482
N     0.304749   -1.721763    0.156499   -0.170660    0.388601   -0.038161
C    -1.021629   -0.783826    0.038768   -0.157147    0.136810   -0.015003
N    -0.630462    0.467425   -0.057406   -0.573642    0.340353   -0.047289
C     0.484472    1.248788   -0.094316   -0.166427    0.068283   -0.010220
O    -2.240560   -1.039603    0.027809    0.447274   -0.902821    0.090350
O     0.140035    2.451401   -0.205858    0.935888    0.033724    0.023212
H     2.482742   -1.594467    0.204970   -0.208061   -0.010381   -0.005816
H     0.250920   -2.278488    1.031264   -0.351729    0.385648   -0.066751
H    -1.443030    1.084630   -0.131721   -0.615043    0.292195   -0.047208
H     2.735818    0.861311    0.000267   -0.416734    0.153550   -0.022663
H     0.296345   -2.421702   -0.610357   -0.355097    0.392005   -0.021265
13
* Frequency(9)  387.9400
C     1.720418    0.411074    0.011341   -0.313627   -0.026595   -0.005173
C     1.609196   -0.928817    0.123734   -0.173849    0.027272   -0.007482
N     0.296850   -1.703778    0.154733   -0.170660    0.388601   -0.038161
C    -1.028902   -0.777494    0.038074   -0.157147    0.136810   -0.015003
N    -0.657011    0.483177   -0.059595   -0.573642    0.340353   -0.047289
C     0.476769    1.251948   -0.094789   -0.166427    0.068283   -0.010220
O    -2.219859   -1.081388    0.031991    0.447274   -0.902821    0.090350
O     0.183349    2.452961   -0.204783    0.935888    0.033724    0.023212
H     2.473112   -1.594947    0.204701   -0.208061   -0.010381   -0.005816
H     0.234642   -2.260639    1.028174   -0.351729    0.385648   -0.066751
H    -1.471495    1.098154   -0.133906   -0.615043    0.292195   -0.047208
H     2.716531    0.868418   -0.000782   -0.416734    0.153550   -0.022663
H     0.279910   -2.403559   -0.611341   -0.355097    0.392005   -0.021265
13
* Frequency(9)  387.9400
C     1.695944    0.408999    0.010937   -0.313627   -0.026595   -0.005173
C     1.595630   -0.926688    0.123150   -0.173849    0.027272   -0.007482
N     0.283533   -1.673454    0.151755   -0.170660    0.388601   -0.038161
C    -1.041165   -0.766819    0.036903   -0.157147    0.136810   -0.015003
N    -0.701774    0.509736   -0.063285   -0.573642    0.340353   -0.047289
C     0.463782    1.257277   -0.095587   -0.166427    0.068283   -0.010220
O    -2.184957   -1.151838    0.039041    0.447274   -0.902821    0.090350
O     0.256380    2.455593   -0.202972    0.935888    0.033724    0.023212
H     2.456876   -1.595757    0.204247   -0.208061   -0.010381   -0.005816
H     0.207195   -2.230546    1.022965   -0.351729    0.385648   -0.066751
H    -1.519490    1.120955   -0.137590   -0.615043    0.292195   -0.047208
H     2.684012    0.880400   -0.002550   -0.416734    0.153550   -0.022663
H     0.252201   -2.372969   -0.613001   -0.355097    0.392005   -0.021265
13
* Frequency(9)  387.9400
C     1.664164    0.406304    0.010413   -0.313627   -0.026595   -0.005173
C     1.578014   -0.923925    0.122392   -0.173849    0.027272   -0.007482
N     0.266240   -1.634077    0.147888   -0.170660    0.388601   -0.038161
C    -1.057088   -0.752956    0.035383   -0.157147    0.136810   -0.015003
N    -0.759901    0.544224   -0.068077   -0.573642    0.340353   -0.047289
C     0.446918    1.264196   -0.096623   -0.166427    0.068283   -0.010220
O    -2.139635   -1.243321    0.048196    0.447274   -0.902821    0.090350
O     0.351213    2.459010   -0.200620    0.935888    0.033724    0.023212
H     2.435794   -1.596809    0.203658   -0.208061   -0.010381   -0.005816
H     0.171554   -2.191468    1.016202   -0.351729    0.385648   -0.066751
H    -1.581812    1.150563   -0.142373   -0.615043    0.292195   -0.047208
H     2.641785    0.895959   -0.004847   -0.416734    0.153550   -0.022663
H     0.216219   -2.333248   -0.615156   -0.355097    0.392005   -0.021265
13
* Frequency(9)  387.9400
C     1.628522    0.403282    0.009825   -0.313627   -0.026595   -0.005173
C     1.558257   -0.920826    0.121541   -0.173849    0.027272   -0.007482
N     0.246846   -1.589915    0.143551   -0.170660    0.388601   -0.038161
C    -1.074947   -0.737408    0.033678   -0.157147    0.136810   -0.015003
N    -0.825093    0.582903   -0.073451   -0.573642    0.340353   -0.047289
C     0.428005    1.271956   -0.097784   -0.166427    0.068283   -0.010220
O    -2.088804   -1.345922    0.058464    0.447274   -0.902821    0.090350
O     0.457572    2.462843   -0.197982    0.935888    0.033724    0.023212
H     2.412149   -1.597989    0.202997   -0.208061   -0.010381   -0.005816
H     0.131582   -2.147641    1.008616   -0.351729    0.385648   -0.066751
H    -1.651708    1.183769   -0.147738   -0.615043    0.292195   -0.047208
H     2.594425    0.913409   -0.007422   -0.416734    0.153550   -0.022663
H     0.175864   -2.288698   -0.617572   -0.355097    0.392005   -0.021265
