13
* (null), Energy   -1000.0000000
C     1.628522    0.403282    0.009825   -0.059458    0.224497   -0.020817
C     1.558257   -0.920826    0.121541   -0.017268   -0.082406    0.006595
N     0.246846   -1.589915    0.143551   -0.001911    0.010325   -0.000971
C    -1.074947   -0.737408    0.033678   -0.079124   -0.052803    0.002419
N    -0.825093    0.582903   -0.073451    0.007460    0.121207   -0.010243
C     0.428005    1.271956   -0.097784    0.093161   -1.464209    0.126969
O    -2.088804   -1.345922    0.058464    0.049727    0.023492   -0.000655
O     0.457572    2.462843   -0.197982    0.006206    0.950748   -0.080499
H     2.412149   -1.597989    0.202997    0.060794   -0.009635    0.002362
H     0.131582   -2.147641    1.008616    0.002295    0.030645    0.026428
H    -1.651708    1.183769   -0.147738   -0.533126   -0.579989    0.035276
H     2.594425    0.913409   -0.007422    0.248286   -0.374468    0.038735
H     0.175864   -2.288698   -0.617572    0.003848    0.025656   -0.031180
13
* Frequency(32) 1877.2717
C     1.621765    0.428794    0.007460   -0.059458    0.224497   -0.020817
C     1.556295   -0.930191    0.122291   -0.017268   -0.082406    0.006595
N     0.246628   -1.588741    0.143441   -0.001911    0.010325   -0.000971
C    -1.083939   -0.743409    0.033953   -0.079124   -0.052803    0.002419
N    -0.824245    0.596678   -0.074615    0.007460    0.121207   -0.010243
C     0.438592    1.105556   -0.083355    0.093161   -1.464209    0.126969
O    -2.083153   -1.343252    0.058390    0.049727    0.023492   -0.000655
O     0.458277    2.570890   -0.207130    0.006206    0.950748   -0.080499
H     2.419057   -1.599084    0.203265    0.060794   -0.009635    0.002362
H     0.131843   -2.144159    1.011619    0.002295    0.030645    0.026428
H    -1.712295    1.117857   -0.143729   -0.533126   -0.579989    0.035276
H     2.622641    0.870853   -0.003020    0.248286   -0.374468    0.038735
H     0.176301   -2.285783   -0.621116    0.003848    0.025656   -0.031180
13
* Frequency(32) 1877.2717
C     1.615740    0.451543    0.005350   -0.059458    0.224497   -0.020817
C     1.554545   -0.938541    0.122959   -0.017268   -0.082406    0.006595
N     0.246435   -1.587695    0.143342   -0.001911    0.010325   -0.000971
C    -1.091957   -0.748759    0.034198   -0.079124   -0.052803    0.002419
N    -0.823489    0.608960   -0.075653    0.007460    0.121207   -0.010243
C     0.448032    0.957188   -0.070489    0.093161   -1.464209    0.126969
O    -2.078114   -1.340871    0.058323    0.049727    0.023492   -0.000655
O     0.458906    2.667229   -0.215287    0.006206    0.950748   -0.080499
H     2.425218   -1.600060    0.203504    0.060794   -0.009635    0.002362
H     0.132076   -2.141054    1.014297    0.002295    0.030645    0.026428
H    -1.766316    1.059087   -0.140155   -0.533126   -0.579989    0.035276
H     2.647800    0.832908    0.000905    0.248286   -0.374468    0.038735
H     0.176691   -2.283183   -0.624275    0.003848    0.025656   -0.031180
13
* Frequency(32) 1877.2717
C     1.611101    0.469061    0.003726   -0.059458    0.224497   -0.020817
C     1.553197   -0.944971    0.123474   -0.017268   -0.082406    0.006595
N     0.246286   -1.586889    0.143267   -0.001911    0.010325   -0.000971
C    -1.098131   -0.752880    0.034387   -0.079124   -0.052803    0.002419
N    -0.822907    0.618418   -0.076452    0.007460    0.121207   -0.010243
C     0.455302    0.842931   -0.060581    0.093161   -1.464209    0.126969
O    -2.074234   -1.339038    0.058272    0.049727    0.023492   -0.000655
O     0.459391    2.741420   -0.221569    0.006206    0.950748   -0.080499
H     2.429962   -1.600812    0.203689    0.060794   -0.009635    0.002362
H     0.132255   -2.138662    1.016359    0.002295    0.030645    0.026428
H    -1.807918    1.013828   -0.137402   -0.533126   -0.579989    0.035276
H     2.667175    0.803687    0.003928    0.248286   -0.374468    0.038735
H     0.176991   -2.281181   -0.626708    0.003848    0.025656   -0.031180
13
* Frequency(32) 1877.2717
C     1.608349    0.479451    0.002762   -0.059458    0.224497   -0.020817
C     1.552398   -0.948785    0.123779   -0.017268   -0.082406    0.006595
N     0.246197   -1.586411    0.143222   -0.001911    0.010325   -0.000971
C    -1.101793   -0.755323    0.034499   -0.079124   -0.052803    0.002419
N    -0.822562    0.624028   -0.076926    0.007460    0.121207   -0.010243
C     0.459613    0.775164   -0.054705    0.093161   -1.464209    0.126969
O    -2.071932   -1.337951    0.058242    0.049727    0.023492   -0.000655
O     0.459678    2.785422   -0.225295    0.006206    0.950748   -0.080499
H     2.432775   -1.601258    0.203798    0.060794   -0.009635    0.002362
H     0.132361   -2.137244    1.017582    0.002295    0.030645    0.026428
H    -1.832592    0.986985   -0.135769   -0.533126   -0.579989    0.035276
H     2.678666    0.786356    0.005720    0.248286   -0.374468    0.038735
H     0.177170   -2.279993   -0.628151    0.003848    0.025656   -0.031180
13
* Frequency(32) 1877.2717
C     1.607783    0.481587    0.002564   -0.059458    0.224497   -0.020817
C     1.552234   -0.949569    0.123842   -0.017268   -0.082406    0.006595
N     0.246179   -1.586313    0.143212   -0.001911    0.010325   -0.000971
C    -1.102546   -0.755826    0.034522   -0.079124   -0.052803    0.002419
N    -0.822491    0.625181   -0.077024    0.007460    0.121207   -0.010243
C     0.460500    0.761233   -0.053497    0.093161   -1.464209    0.126969
O    -2.071459   -1.337728    0.058236    0.049727    0.023492   -0.000655
O     0.459737    2.794468   -0.226061    0.006206    0.950748   -0.080499
H     2.433354   -1.601350    0.203821    0.060794   -0.009635    0.002362
H     0.132383   -2.136952    1.017834    0.002295    0.030645    0.026428
H    -1.837665    0.981467   -0.135434   -0.533126   -0.579989    0.035276
H     2.681028    0.782793    0.006089    0.248286   -0.374468    0.038735
H     0.177206   -2.279749   -0.628448    0.003848    0.025656   -0.031180
13
* Frequency(32) 1877.2717
C     1.609465    0.475237    0.003153   -0.059458    0.224497   -0.020817
C     1.552722   -0.947239    0.123655   -0.017268   -0.082406    0.006595
N     0.246233   -1.586605    0.143240   -0.001911    0.010325   -0.000971
C    -1.100308   -0.754332    0.034453   -0.079124   -0.052803    0.002419
N    -0.822702    0.621753   -0.076734    0.007460    0.121207   -0.010243
C     0.457865    0.802647   -0.057088    0.093161   -1.464209    0.126969
O    -2.072866   -1.338392    0.058254    0.049727    0.023492   -0.000655
O     0.459561    2.767577   -0.223784    0.006206    0.950748   -0.080499
H     2.431634   -1.601077    0.203754    0.060794   -0.009635    0.002362
H     0.132318   -2.137819    1.017086    0.002295    0.030645    0.026428
H    -1.822586    0.997871   -0.136431   -0.533126   -0.579989    0.035276
H     2.674006    0.793384    0.004993    0.248286   -0.374468    0.038735
H     0.177097   -2.280475   -0.627566    0.003848    0.025656   -0.031180
13
* Frequency(32) 1877.2717
C     1.613212    0.461090    0.004465   -0.059458    0.224497   -0.020817
C     1.553811   -0.942046    0.123240   -0.017268   -0.082406    0.006595
N     0.246354   -1.587256    0.143301   -0.001911    0.010325   -0.000971
C    -1.095322   -0.751005    0.034301   -0.079124   -0.052803    0.002419
N    -0.823172    0.614115   -0.076089    0.007460    0.121207   -0.010243
C     0.451994    0.894917   -0.065089    0.093161   -1.464209    0.126969
O    -2.075999   -1.339872    0.058296    0.049727    0.023492   -0.000655
O     0.459170    2.707663   -0.218711    0.006206    0.950748   -0.080499
H     2.427803   -1.600470    0.203605    0.060794   -0.009635    0.002362
H     0.132173   -2.139750    1.015421    0.002295    0.030645    0.026428
H    -1.788990    1.034420   -0.138654   -0.533126   -0.579989    0.035276
H     2.658359    0.816982    0.002552    0.248286   -0.374468    0.038735
H     0.176855   -2.282092   -0.625601    0.003848    0.025656   -0.031180
13
* Frequency(32) 1877.2717
C     1.618618    0.440679    0.006358   -0.059458    0.224497   -0.020817
C     1.555381   -0.934553    0.122640   -0.017268   -0.082406    0.006595
N     0.246527   -1.588195    0.143389   -0.001911    0.010325   -0.000971
C    -1.088128   -0.746204    0.034081   -0.079124   -0.052803    0.002419
N    -0.823850    0.603094   -0.075157    0.007460    0.121207   -0.010243
C     0.443524    1.028046   -0.076633    0.093161   -1.464209    0.126969
O    -2.080521   -1.342008    0.058355    0.049727    0.023492   -0.000655
O     0.458606    2.621220   -0.211392    0.006206    0.950748   -0.080499
H     2.422276   -1.599594    0.203390    0.060794   -0.009635    0.002362
H     0.131965   -2.142537    1.013018    0.002295    0.030645    0.026428
H    -1.740517    1.087154   -0.141862   -0.533126   -0.579989    0.035276
H     2.635785    0.851030   -0.000969    0.248286   -0.374468    0.038735
H     0.176505   -2.284425   -0.622766    0.003848    0.025656   -0.031180
13
* Frequency(32) 1877.2717
C     1.625097    0.416214    0.008626   -0.059458    0.224497   -0.020817
C     1.557262   -0.925573    0.121921   -0.017268   -0.082406    0.006595
N     0.246736   -1.589320    0.143495   -0.001911    0.010325   -0.000971
C    -1.079506   -0.740450    0.033817   -0.079124   -0.052803    0.002419
N    -0.824663    0.589886   -0.074041    0.007460    0.121207   -0.010243
C     0.433372    1.187606   -0.090470    0.093161   -1.464209    0.126969
O    -2.085940   -1.344568    0.058427    0.049727    0.023492   -0.000655
O     0.457930    2.517613   -0.202620    0.006206    0.950748   -0.080499
H     2.415651   -1.598544    0.203133    0.060794   -0.009635    0.002362
H     0.131714   -2.145876    1.010138    0.002295    0.030645    0.026428
H    -1.682420    1.150357   -0.145706   -0.533126   -0.579989    0.035276
H     2.608728    0.891837   -0.005191    0.248286   -0.374468    0.038735
H     0.176086   -2.287220   -0.619368    0.003848    0.025656   -0.031180
13
* Frequency(32) 1877.2717
C     1.631948    0.390349    0.011025   -0.059458    0.224497   -0.020817
C     1.559252   -0.916078    0.121162   -0.017268   -0.082406    0.006595
N     0.246956   -1.590509    0.143607   -0.001911    0.010325   -0.000971
C    -1.070389   -0.734366    0.033538   -0.079124   -0.052803    0.002419
N    -0.825523    0.575921   -0.072861    0.007460    0.121207   -0.010243
C     0.422638    1.356306   -0.105099    0.093161   -1.464209    0.126969
O    -2.091669   -1.347275    0.058502    0.049727    0.023492   -0.000655
O     0.457215    2.408072   -0.193345    0.006206    0.950748   -0.080499
H     2.408646   -1.597434    0.202861    0.060794   -0.009635    0.002362
H     0.131450   -2.149407    1.007093    0.002295    0.030645    0.026428
H    -1.620996    1.217182   -0.149770   -0.533126   -0.579989    0.035276
H     2.580122    0.934982   -0.009653    0.248286   -0.374468    0.038735
H     0.175642   -2.290176   -0.615776    0.003848    0.025656   -0.031180
13
* Frequency(32) 1877.2717
C     1.638427    0.365885    0.013293   -0.059458    0.224497   -0.020817
C     1.561134   -0.907098    0.120443   -0.017268   -0.082406    0.006595
N     0.247164   -1.591634    0.143713   -0.001911    0.010325   -0.000971
C    -1.061767   -0.728612    0.033275   -0.079124   -0.052803    0.002419
N    -0.826336    0.562713   -0.071745    0.007460    0.121207   -0.010243
C     0.412486    1.515866   -0.118935    0.093161   -1.464209    0.126969
O    -2.097088   -1.349835    0.058573    0.049727    0.023492   -0.000655
O     0.456538    2.304466   -0.184573    0.006206    0.950748   -0.080499
H     2.402021   -1.596384    0.202603    0.060794   -0.009635    0.002362
H     0.131200   -2.152746    1.004213    0.002295    0.030645    0.026428
H    -1.562899    1.280385   -0.153614   -0.533126   -0.579989    0.035276
H     2.553065    0.975789   -0.013875    0.248286   -0.374468    0.038735
H     0.175223   -2.292972   -0.612378    0.003848    0.025656   -0.031180
13
* Frequency(32) 1877.2717
C     1.643833    0.345473    0.015186   -0.059458    0.224497   -0.020817
C     1.562704   -0.899606    0.119843   -0.017268   -0.082406    0.006595
N     0.247338   -1.592573    0.143801   -0.001911    0.010325   -0.000971
C    -1.054573   -0.723811    0.033055   -0.079124   -0.052803    0.002419
N    -0.827014    0.551692   -0.070813    0.007460    0.121207   -0.010243
C     0.404016    1.648995   -0.130479    0.093161   -1.464209    0.126969
O    -2.101609   -1.351971    0.058633    0.049727    0.023492   -0.000655
O     0.455974    2.218022   -0.177254    0.006206    0.950748   -0.080499
H     2.396494   -1.595508    0.202388    0.060794   -0.009635    0.002362
H     0.130991   -2.155533    1.001810    0.002295    0.030645    0.026428
H    -1.514426    1.333119   -0.156822   -0.533126   -0.579989    0.035276
H     2.530490    1.009836   -0.017396    0.248286   -0.374468    0.038735
H     0.174873   -2.295305   -0.609543    0.003848    0.025656   -0.031180
13
* Frequency(32) 1877.2717
C     1.647580    0.331326    0.016498   -0.059458    0.224497   -0.020817
C     1.563792   -0.894413    0.119428   -0.017268   -0.082406    0.006595
N     0.247458   -1.593224    0.143862   -0.001911    0.010325   -0.000971
C    -1.049587   -0.720483    0.032902   -0.079124   -0.052803    0.002419
N    -0.827484    0.544054   -0.070168    0.007460    0.121207   -0.010243
C     0.398145    1.741265   -0.138480    0.093161   -1.464209    0.126969
O    -2.104743   -1.353451    0.058674    0.049727    0.023492   -0.000655
O     0.455583    2.158108   -0.172181    0.006206    0.950748   -0.080499
H     2.392663   -1.594901    0.202240    0.060794   -0.009635    0.002362
H     0.130847   -2.157464    1.000145    0.002295    0.030645    0.026428
H    -1.480830    1.369668   -0.159045   -0.533126   -0.579989    0.035276
H     2.514844    1.033434   -0.019837    0.248286   -0.374468    0.038735
H     0.174631   -2.296922   -0.607578    0.003848    0.025656   -0.031180
13
* Frequency(32) 1877.2717
C     1.649262    0.324976    0.017087   -0.059458    0.224497   -0.020817
C     1.564280   -0.892082    0.119241   -0.017268   -0.082406    0.006595
N     0.247512   -1.593516    0.143890   -0.001911    0.010325   -0.000971
C    -1.047349   -0.718990    0.032834   -0.079124   -0.052803    0.002419
N    -0.827695    0.540626   -0.069878    0.007460    0.121207   -0.010243
C     0.395510    1.782679   -0.142071    0.093161   -1.464209    0.126969
O    -2.106149   -1.354116    0.058693    0.049727    0.023492   -0.000655
O     0.455407    2.131217   -0.169904    0.006206    0.950748   -0.080499
H     2.390943   -1.594628    0.202173    0.060794   -0.009635    0.002362
H     0.130782   -2.158330    0.999397    0.002295    0.030645    0.026428
H    -1.465751    1.386072   -0.160042   -0.533126   -0.579989    0.035276
H     2.507822    1.044025   -0.020933    0.248286   -0.374468    0.038735
H     0.174522   -2.297647   -0.606697    0.003848    0.025656   -0.031180
13
* Frequency(32) 1877.2717
C     1.648696    0.327112    0.016888   -0.059458    0.224497   -0.020817
C     1.564116   -0.892866    0.119304   -0.017268   -0.082406    0.006595
N     0.247494   -1.593418    0.143880   -0.001911    0.010325   -0.000971
C    -1.048101   -0.719492    0.032857   -0.079124   -0.052803    0.002419
N    -0.827624    0.541779   -0.069976    0.007460    0.121207   -0.010243
C     0.396396    1.768747   -0.140863    0.093161   -1.464209    0.126969
O    -2.105676   -1.353892    0.058686    0.049727    0.023492   -0.000655
O     0.455466    2.140263   -0.170670    0.006206    0.950748   -0.080499
H     2.391522   -1.594720    0.202195    0.060794   -0.009635    0.002362
H     0.130804   -2.158039    0.999649    0.002295    0.030645    0.026428
H    -1.470824    1.380554   -0.159707   -0.533126   -0.579989    0.035276
H     2.510184    1.040463   -0.020564    0.248286   -0.374468    0.038735
H     0.174559   -2.297403   -0.606993    0.003848    0.025656   -0.031180
13
* Frequency(32) 1877.2717
C     1.645944    0.337502    0.015925   -0.059458    0.224497   -0.020817
C     1.563317   -0.896680    0.119609   -0.017268   -0.082406    0.006595
N     0.247406   -1.592940    0.143835   -0.001911    0.010325   -0.000971
C    -1.051763   -0.721936    0.032969   -0.079124   -0.052803    0.002419
N    -0.827279    0.547389   -0.070450    0.007460    0.121207   -0.010243
C     0.400708    1.700981   -0.134987    0.093161   -1.464209    0.126969
O    -2.103375   -1.352805    0.058656    0.049727    0.023492   -0.000655
O     0.455754    2.184266   -0.174395    0.006206    0.950748   -0.080499
H     2.394335   -1.595166    0.202305    0.060794   -0.009635    0.002362
H     0.130910   -2.156621    1.000872    0.002295    0.030645    0.026428
H    -1.495498    1.353711   -0.158074   -0.533126   -0.579989    0.035276
H     2.521675    1.023131   -0.018772    0.248286   -0.374468    0.038735
H     0.174737   -2.296216   -0.608436    0.003848    0.025656   -0.031180
13
* Frequency(32) 1877.2717
C     1.641304    0.355020    0.014301   -0.059458    0.224497   -0.020817
C     1.561969   -0.903111    0.120124   -0.017268   -0.082406    0.006595
N     0.247256   -1.592134    0.143760   -0.001911    0.010325   -0.000971
C    -1.057938   -0.726057    0.033158   -0.079124   -0.052803    0.002419
N    -0.826697    0.556847   -0.071249    0.007460    0.121207   -0.010243
C     0.407978    1.586723   -0.125079    0.093161   -1.464209    0.126969
O    -2.099494   -1.350972    0.058605    0.049727    0.023492   -0.000655
O     0.456238    2.258456   -0.180677    0.006206    0.950748   -0.080499
H     2.399079   -1.595918    0.202489    0.060794   -0.009635    0.002362
H     0.131089   -2.154229    1.002934    0.002295    0.030645    0.026428
H    -1.537100    1.308452   -0.155321   -0.533126   -0.579989    0.035276
H     2.541050    0.993910   -0.015749    0.248286   -0.374468    0.038735
H     0.175037   -2.294214   -0.610869    0.003848    0.025656   -0.031180
13
* Frequency(32) 1877.2717
C     1.635279    0.377769    0.012191   -0.059458    0.224497   -0.020817
C     1.560220   -0.911461    0.120792   -0.017268   -0.082406    0.006595
N     0.247063   -1.591088    0.143661   -0.001911    0.010325   -0.000971
C    -1.065955   -0.731407    0.033403   -0.079124   -0.052803    0.002419
N    -0.825941    0.569129   -0.072287    0.007460    0.121207   -0.010243
C     0.417418    1.438356   -0.112213    0.093161   -1.464209    0.126969
O    -2.094455   -1.348591    0.058539    0.049727    0.023492   -0.000655
O     0.456867    2.354795   -0.188834    0.006206    0.950748   -0.080499
H     2.405240   -1.596894    0.202728    0.060794   -0.009635    0.002362
H     0.131321   -2.151124    1.005612    0.002295    0.030645    0.026428
H    -1.591121    1.249682   -0.151747   -0.533126   -0.579989    0.035276
H     2.566208    0.955966   -0.011824    0.248286   -0.374468    0.038735
H     0.175427   -2.291614   -0.614029    0.003848    0.025656   -0.031180
13
* Frequency(32) 1877.2717
C     1.628522    0.403282    0.009825   -0.059458    0.224497   -0.020817
C     1.558257   -0.920826    0.121541   -0.017268   -0.082406    0.006595
N     0.246846   -1.589915    0.143551   -0.001911    0.010325   -0.000971
C    -1.074947   -0.737408    0.033678   -0.079124   -0.052803    0.002419
N    -0.825093    0.582903   -0.073451    0.007460    0.121207   -0.010243
C     0.428005    1.271956   -0.097784    0.093161   -1.464209    0.126969
O    -2.088804   -1.345922    0.058464    0.049727    0.023492   -0.000655
O     0.457572    2.462843   -0.197982    0.006206    0.950748   -0.080499
H     2.412149   -1.597989    0.202997    0.060794   -0.009635    0.002362
H     0.131582   -2.147641    1.008616    0.002295    0.030645    0.026428
H    -1.651708    1.183769   -0.147738   -0.533126   -0.579989    0.035276
H     2.594425    0.913409   -0.007422    0.248286   -0.374468    0.038735
H     0.175864   -2.288698   -0.617572    0.003848    0.025656   -0.031180
