13
* (null), Energy   -1000.0000000
C     1.372793    0.529851   -0.015036    0.011099    0.009713   -0.000529
C     1.302724   -0.794210    0.095800   -0.120527   -0.115497    0.006646
N    -0.008640   -1.463020    0.118827    0.084077   -0.017073    0.003573
C    -1.330555   -0.610659    0.008144   -0.104014    0.225539   -0.022260
N    -1.080705    0.709657   -0.097399   -0.091196   -0.238513    0.017852
C     0.172593    1.398876   -0.122183    0.285230    0.036171    0.004753
O    -2.344242   -1.219751    0.031049    0.096018    0.051887   -0.001647
O     0.201841    2.589695   -0.223265   -0.020707    0.024657   -0.002698
H     2.156844   -1.471062    0.176152   -0.119067   -0.119596    0.007476
H    -0.124198   -2.019917    0.984598   -0.278796    0.068058    0.004028
H    -1.907129    1.310644   -0.173530   -0.572247   -0.905994    0.061777
H     2.338608    1.040183   -0.032851   -0.703445    1.371977   -0.136004
H    -0.080594   -2.162817   -0.641747   -0.278255    0.064254   -0.030320
13
* Frequency(24) 1227.1737
C     1.374054    0.530955   -0.015096    0.011099    0.009713   -0.000529
C     1.289027   -0.807335    0.096556   -0.120527   -0.115497    0.006646
N     0.000915   -1.464961    0.119233    0.084077   -0.017073    0.003573
C    -1.342376   -0.585028    0.005615   -0.104014    0.225539   -0.022260
N    -1.091069    0.682551   -0.095370   -0.091196   -0.238513    0.017852
C     0.205008    1.402986   -0.121643    0.285230    0.036171    0.004753
O    -2.333330   -1.213854    0.030862    0.096018    0.051887   -0.001647
O     0.199488    2.592497   -0.223571   -0.020707    0.024657   -0.002698
H     2.143312   -1.484653    0.177001   -0.119067   -0.119596    0.007476
H    -0.155881   -2.012182    0.985056   -0.278796    0.068058    0.004028
H    -1.972162    1.207682   -0.166509   -0.572247   -0.905994    0.061777
H     2.258665    1.196101   -0.048308   -0.703445    1.371977   -0.136004
H    -0.112216   -2.155515   -0.645193   -0.278255    0.064254   -0.030320
13
* Frequency(24) 1227.1737
C     1.375179    0.531939   -0.015150    0.011099    0.009713   -0.000529
C     1.276814   -0.819038    0.097229   -0.120527   -0.115497    0.006646
N     0.009434   -1.466691    0.119595    0.084077   -0.017073    0.003573
C    -1.352916   -0.562174    0.003359   -0.104014    0.225539   -0.022260
N    -1.100310    0.658383   -0.093561   -0.091196   -0.238513    0.017852
C     0.233910    1.406652   -0.121161    0.285230    0.036171    0.004753
O    -2.323600   -1.208596    0.030695    0.096018    0.051887   -0.001647
O     0.197390    2.594996   -0.223845   -0.020707    0.024657   -0.002698
H     2.131247   -1.496772    0.177759   -0.119067   -0.119596    0.007476
H    -0.184132   -2.005286    0.985464   -0.278796    0.068058    0.004028
H    -2.030147    1.115878   -0.160249   -0.572247   -0.905994    0.061777
H     2.187385    1.335123   -0.062089   -0.703445    1.371977   -0.136004
H    -0.140411   -2.149004   -0.648265   -0.278255    0.064254   -0.030320
13
* Frequency(24) 1227.1737
C     1.376045    0.532697   -0.015191    0.011099    0.009713   -0.000529
C     1.267409   -0.828051    0.097748   -0.120527   -0.115497    0.006646
N     0.015995   -1.468023    0.119874    0.084077   -0.017073    0.003573
C    -1.361033   -0.544575    0.001622   -0.104014    0.225539   -0.022260
N    -1.107426    0.639771   -0.092168   -0.091196   -0.238513    0.017852
C     0.256168    1.409474   -0.120790    0.285230    0.036171    0.004753
O    -2.316108   -1.204547    0.030566    0.096018    0.051887   -0.001647
O     0.195774    2.596920   -0.224055   -0.020707    0.024657   -0.002698
H     2.121956   -1.506104    0.178342   -0.119067   -0.119596    0.007476
H    -0.205887   -1.999975    0.985778   -0.278796    0.068058    0.004028
H    -2.074802    1.045180   -0.155428   -0.572247   -0.905994    0.061777
H     2.132492    1.442183   -0.072702   -0.703445    1.371977   -0.136004
H    -0.162125   -2.143990   -0.650631   -0.278255    0.064254   -0.030320
13
* Frequency(24) 1227.1737
C     1.376558    0.533147   -0.015215    0.011099    0.009713   -0.000529
C     1.261830   -0.833396    0.098055   -0.120527   -0.115497    0.006646
N     0.019886   -1.468813    0.120040    0.084077   -0.017073    0.003573
C    -1.365847   -0.534136    0.000592   -0.104014    0.225539   -0.022260
N    -1.111647    0.628732   -0.091342   -0.091196   -0.238513    0.017852
C     0.269369    1.411148   -0.120570    0.285230    0.036171    0.004753
O    -2.311664   -1.202146    0.030490    0.096018    0.051887   -0.001647
O     0.194816    2.598061   -0.224180   -0.020707    0.024657   -0.002698
H     2.116445   -1.511639    0.178688   -0.119067   -0.119596    0.007476
H    -0.218790   -1.996825    0.985965   -0.278796    0.068058    0.004028
H    -2.101287    1.003249   -0.152569   -0.572247   -0.905994    0.061777
H     2.099936    1.505681   -0.078996   -0.703445    1.371977   -0.136004
H    -0.175003   -2.141016   -0.652035   -0.278255    0.064254   -0.030320
13
* Frequency(24) 1227.1737
C     1.376664    0.533239   -0.015220    0.011099    0.009713   -0.000529
C     1.260684   -0.834495    0.098118   -0.120527   -0.115497    0.006646
N     0.020686   -1.468976    0.120074    0.084077   -0.017073    0.003573
C    -1.366836   -0.531990    0.000380   -0.104014    0.225539   -0.022260
N    -1.112514    0.626463   -0.091172   -0.091196   -0.238513    0.017852
C     0.272083    1.411492   -0.120525    0.285230    0.036171    0.004753
O    -2.310750   -1.201652    0.030474    0.096018    0.051887   -0.001647
O     0.194619    2.598296   -0.224206   -0.020707    0.024657   -0.002698
H     2.115312   -1.512777    0.178759   -0.119067   -0.119596    0.007476
H    -0.221443   -1.996178    0.986003   -0.278796    0.068058    0.004028
H    -2.106731    0.994629   -0.151982   -0.572247   -0.905994    0.061777
H     2.093243    1.518735   -0.080290   -0.703445    1.371977   -0.136004
H    -0.177650   -2.140405   -0.652323   -0.278255    0.064254   -0.030320
13
* Frequency(24) 1227.1737
C     1.376350    0.532964   -0.015206    0.011099    0.009713   -0.000529
C     1.264093   -0.831229    0.097930   -0.120527   -0.115497    0.006646
N     0.018308   -1.468493    0.119972    0.084077   -0.017073    0.003573
C    -1.363894   -0.538369    0.001010   -0.104014    0.225539   -0.022260
N    -1.109935    0.633209   -0.091677   -0.091196   -0.238513    0.017852
C     0.264015    1.410469   -0.120659    0.285230    0.036171    0.004753
O    -2.313466   -1.203120    0.030521    0.096018    0.051887   -0.001647
O     0.195204    2.597598   -0.224129   -0.020707    0.024657   -0.002698
H     2.118680   -1.509395    0.178548   -0.119067   -0.119596    0.007476
H    -0.213558   -1.998103    0.985889   -0.278796    0.068058    0.004028
H    -2.090546    1.020254   -0.153729   -0.572247   -0.905994    0.061777
H     2.113139    1.479930   -0.076444   -0.703445    1.371977   -0.136004
H    -0.169780   -2.142222   -0.651465   -0.278255    0.064254   -0.030320
13
* Frequency(24) 1227.1737
C     1.375651    0.532352   -0.015172    0.011099    0.009713   -0.000529
C     1.271688   -0.823950    0.097512   -0.120527   -0.115497    0.006646
N     0.013010   -1.467417    0.119747    0.084077   -0.017073    0.003573
C    -1.357340   -0.552582    0.002412   -0.104014    0.225539   -0.022260
N    -1.104188    0.648239   -0.092802   -0.091196   -0.238513    0.017852
C     0.246041    1.408190   -0.120959    0.285230    0.036171    0.004753
O    -2.319517   -1.206390    0.030625    0.096018    0.051887   -0.001647
O     0.196509    2.596045   -0.223959   -0.020707    0.024657   -0.002698
H     2.126183   -1.501858    0.178077   -0.119067   -0.119596    0.007476
H    -0.195989   -2.002392    0.985635   -0.278796    0.068058    0.004028
H    -2.054484    1.077347   -0.157622   -0.572247   -0.905994    0.061777
H     2.157468    1.393472   -0.067873   -0.703445    1.371977   -0.136004
H    -0.152245   -2.146271   -0.649555   -0.278255    0.064254   -0.030320
13
* Frequency(24) 1227.1737
C     1.374642    0.531469   -0.015124    0.011099    0.009713   -0.000529
C     1.282646   -0.813449    0.096907   -0.120527   -0.115497    0.006646
N     0.005366   -1.465864    0.119422    0.084077   -0.017073    0.003573
C    -1.347882   -0.573089    0.004436   -0.104014    0.225539   -0.022260
N    -1.095896    0.669925   -0.094425   -0.091196   -0.238513    0.017852
C     0.220107    1.404901   -0.121391    0.285230    0.036171    0.004753
O    -2.328247   -1.211107    0.030774    0.096018    0.051887   -0.001647
O     0.198392    2.593803   -0.223714   -0.020707    0.024657   -0.002698
H     2.137009   -1.490984    0.177397   -0.119067   -0.119596    0.007476
H    -0.170640   -2.008580    0.985269   -0.278796    0.068058    0.004028
H    -2.002455    1.159722   -0.163239   -0.572247   -0.905994    0.061777
H     2.221426    1.268729   -0.055507   -0.703445    1.371977   -0.136004
H    -0.126946   -2.152114   -0.646798   -0.278255    0.064254   -0.030320
13
* Frequency(24) 1227.1737
C     1.373432    0.530411   -0.015067    0.011099    0.009713   -0.000529
C     1.295781   -0.800863    0.096183   -0.120527   -0.115497    0.006646
N    -0.003797   -1.464004    0.119033    0.084077   -0.017073    0.003573
C    -1.336548   -0.597666    0.006862   -0.104014    0.225539   -0.022260
N    -1.085959    0.695917   -0.096370   -0.091196   -0.238513    0.017852
C     0.189025    1.400960   -0.121909    0.285230    0.036171    0.004753
O    -2.338710   -1.216762    0.030954    0.096018    0.051887   -0.001647
O     0.200648    2.591116   -0.223420   -0.020707    0.024657   -0.002698
H     2.149984   -1.477951    0.176582   -0.119067   -0.119596    0.007476
H    -0.140258   -2.015996    0.984830   -0.278796    0.068058    0.004028
H    -1.940095    1.258451   -0.169971   -0.572247   -0.905994    0.061777
H     2.298083    1.119220   -0.040686   -0.703445    1.371977   -0.136004
H    -0.096623   -2.159116   -0.643494   -0.278255    0.064254   -0.030320
13
* Frequency(24) 1227.1737
C     1.372153    0.529292   -0.015006    0.011099    0.009713   -0.000529
C     1.309667   -0.787556    0.095417   -0.120527   -0.115497    0.006646
N    -0.013484   -1.462037    0.118621    0.084077   -0.017073    0.003573
C    -1.324563   -0.623652    0.009427   -0.104014    0.225539   -0.022260
N    -1.075451    0.723397   -0.098427   -0.091196   -0.238513    0.017852
C     0.156162    1.396792   -0.122457    0.285230    0.036171    0.004753
O    -2.349773   -1.222740    0.031144    0.096018    0.051887   -0.001647
O     0.203034    2.588275   -0.223109   -0.020707    0.024657   -0.002698
H     2.163703   -1.464172    0.175721   -0.119067   -0.119596    0.007476
H    -0.108137   -2.023837    0.984366   -0.278796    0.068058    0.004028
H    -1.874163    1.362836   -0.177089   -0.572247   -0.905994    0.061777
H     2.379132    0.961146   -0.025016   -0.703445    1.371977   -0.136004
H    -0.064564   -2.166519   -0.640001   -0.278255    0.064254   -0.030320
13
* Frequency(24) 1227.1737
C     1.370944    0.528233   -0.014948    0.011099    0.009713   -0.000529
C     1.322801   -0.774970    0.094693   -0.120527   -0.115497    0.006646
N    -0.022646   -1.460176    0.118232    0.084077   -0.017073    0.003573
C    -1.313229   -0.648230    0.011853   -0.104014    0.225539   -0.022260
N    -1.065513    0.749389   -0.100372   -0.091196   -0.238513    0.017852
C     0.125079    1.392850   -0.122974    0.285230    0.036171    0.004753
O    -2.360237   -1.228394    0.031323    0.096018    0.051887   -0.001647
O     0.205291    2.585588   -0.222815   -0.020707    0.024657   -0.002698
H     2.176678   -1.451139    0.174906   -0.119067   -0.119596    0.007476
H    -0.077755   -2.031254    0.983927   -0.278796    0.068058    0.004028
H    -1.811803    1.461565   -0.183821   -0.572247   -0.905994    0.061777
H     2.455789    0.811637   -0.010196   -0.703445    1.371977   -0.136004
H    -0.034241   -2.173521   -0.636696   -0.278255    0.064254   -0.030320
13
* Frequency(24) 1227.1737
C     1.369935    0.527350   -0.014900    0.011099    0.009713   -0.000529
C     1.333760   -0.764469    0.094089   -0.120527   -0.115497    0.006646
N    -0.030290   -1.458624    0.117907    0.084077   -0.017073    0.003573
C    -1.303771   -0.668736    0.013876   -0.104014    0.225539   -0.022260
N    -1.057222    0.771075   -0.101996   -0.091196   -0.238513    0.017852
C     0.099146    1.389562   -0.123407    0.285230    0.036171    0.004753
O    -2.368967   -1.233112    0.031473    0.096018    0.051887   -0.001647
O     0.207173    2.583346   -0.222570   -0.020707    0.024657   -0.002698
H     2.187504   -1.440265    0.174227   -0.119067   -0.119596    0.007476
H    -0.052407   -2.037442    0.983561   -0.278796    0.068058    0.004028
H    -1.759773    1.543940   -0.189438   -0.572247   -0.905994    0.061777
H     2.519747    0.686894    0.002170   -0.703445    1.371977   -0.136004
H    -0.008942   -2.179363   -0.633940   -0.278255    0.064254   -0.030320
13
* Frequency(24) 1227.1737
C     1.369235    0.526738   -0.014867    0.011099    0.009713   -0.000529
C     1.341355   -0.757191    0.093670   -0.120527   -0.115497    0.006646
N    -0.035588   -1.457548    0.117682    0.084077   -0.017073    0.003573
C    -1.297217   -0.682949    0.015279   -0.104014    0.225539   -0.022260
N    -1.051475    0.786105   -0.103121   -0.091196   -0.238513    0.017852
C     0.081171    1.387282   -0.123706    0.285230    0.036171    0.004753
O    -2.375018   -1.236382    0.031577    0.096018    0.051887   -0.001647
O     0.208478    2.581792   -0.222400   -0.020707    0.024657   -0.002698
H     2.195007   -1.432729    0.173756   -0.119067   -0.119596    0.007476
H    -0.034838   -2.041731    0.983307   -0.278796    0.068058    0.004028
H    -1.723712    1.601033   -0.193331   -0.572247   -0.905994    0.061777
H     2.564076    0.600436    0.010741   -0.703445    1.371977   -0.136004
H     0.008593   -2.183412   -0.632029   -0.278255    0.064254   -0.030320
13
* Frequency(24) 1227.1737
C     1.368921    0.526463   -0.014852    0.011099    0.009713   -0.000529
C     1.344764   -0.753924    0.093482   -0.120527   -0.115497    0.006646
N    -0.037966   -1.457065    0.117581    0.084077   -0.017073    0.003573
C    -1.294275   -0.689328    0.015909   -0.104014    0.225539   -0.022260
N    -1.048896    0.792851   -0.103626   -0.091196   -0.238513    0.017852
C     0.073104    1.386259   -0.123840    0.285230    0.036171    0.004753
O    -2.377733   -1.237849    0.031623    0.096018    0.051887   -0.001647
O     0.209064    2.581095   -0.222324   -0.020707    0.024657   -0.002698
H     2.198375   -1.429346    0.173544   -0.119067   -0.119596    0.007476
H    -0.026952   -2.043656    0.983193   -0.278796    0.068058    0.004028
H    -1.707526    1.626658   -0.195078   -0.572247   -0.905994    0.061777
H     2.583972    0.561631    0.014588   -0.703445    1.371977   -0.136004
H     0.016463   -2.185229   -0.631171   -0.278255    0.064254   -0.030320
13
* Frequency(24) 1227.1737
C     1.369027    0.526555   -0.014857    0.011099    0.009713   -0.000529
C     1.343617   -0.755023    0.093545   -0.120527   -0.115497    0.006646
N    -0.037166   -1.457228    0.117615    0.084077   -0.017073    0.003573
C    -1.295264   -0.687182    0.015697   -0.104014    0.225539   -0.022260
N    -1.049763    0.790582   -0.103456   -0.091196   -0.238513    0.017852
C     0.075818    1.386603   -0.123795    0.285230    0.036171    0.004753
O    -2.376820   -1.237356    0.031608    0.096018    0.051887   -0.001647
O     0.208867    2.581329   -0.222349   -0.020707    0.024657   -0.002698
H     2.197242   -1.430484    0.173615   -0.119067   -0.119596    0.007476
H    -0.029605   -2.043008    0.983232   -0.278796    0.068058    0.004028
H    -1.712971    1.618038   -0.194490   -0.572247   -0.905994    0.061777
H     2.577280    0.574684    0.013293   -0.703445    1.371977   -0.136004
H     0.013816   -2.184618   -0.631460   -0.278255    0.064254   -0.030320
13
* Frequency(24) 1227.1737
C     1.369541    0.527005   -0.014881    0.011099    0.009713   -0.000529
C     1.338039   -0.760368    0.093853   -0.120527   -0.115497    0.006646
N    -0.033275   -1.458018    0.117780    0.084077   -0.017073    0.003573
C    -1.300078   -0.676744    0.014667   -0.104014    0.225539   -0.022260
N    -1.053984    0.779543   -0.102629   -0.091196   -0.238513    0.017852
C     0.089019    1.388277   -0.123575    0.285230    0.036171    0.004753
O    -2.372376   -1.234954    0.031531    0.096018    0.051887   -0.001647
O     0.207909    2.582471   -0.222474   -0.020707    0.024657   -0.002698
H     2.191731   -1.436019    0.173961   -0.119067   -0.119596    0.007476
H    -0.042508   -2.039858    0.983418   -0.278796    0.068058    0.004028
H    -1.739456    1.576107   -0.191631   -0.572247   -0.905994    0.061777
H     2.544723    0.638182    0.006999   -0.703445    1.371977   -0.136004
H     0.000937   -2.181644   -0.632863   -0.278255    0.064254   -0.030320
13
* Frequency(24) 1227.1737
C     1.370407    0.527763   -0.014922    0.011099    0.009713   -0.000529
C     1.328634   -0.769381    0.094371   -0.120527   -0.115497    0.006646
N    -0.026714   -1.459350    0.118059    0.084077   -0.017073    0.003573
C    -1.308195   -0.659144    0.012930   -0.104014    0.225539   -0.022260
N    -1.061100    0.760931   -0.101236   -0.091196   -0.238513    0.017852
C     0.111276    1.391100   -0.123204    0.285230    0.036171    0.004753
O    -2.364883   -1.230905    0.031403    0.096018    0.051887   -0.001647
O     0.206293    2.584395   -0.222685   -0.020707    0.024657   -0.002698
H     2.182440   -1.445352    0.174545   -0.119067   -0.119596    0.007476
H    -0.064263   -2.034547    0.983732   -0.278796    0.068058    0.004028
H    -1.784110    1.505409   -0.186810   -0.572247   -0.905994    0.061777
H     2.489830    0.745243   -0.003614   -0.703445    1.371977   -0.136004
H    -0.020776   -2.176630   -0.635229   -0.278255    0.064254   -0.030320
13
* Frequency(24) 1227.1737
C     1.371531    0.528747   -0.014976    0.011099    0.009713   -0.000529
C     1.316421   -0.781084    0.095045   -0.120527   -0.115497    0.006646
N    -0.018195   -1.461080    0.118421    0.084077   -0.017073    0.003573
C    -1.318735   -0.636290    0.010674   -0.104014    0.225539   -0.022260
N    -1.070341    0.736763   -0.099427   -0.091196   -0.238513    0.017852
C     0.140178    1.394765   -0.122723    0.285230    0.036171    0.004753
O    -2.355154   -1.225648    0.031236    0.096018    0.051887   -0.001647
O     0.204194    2.586893   -0.222958   -0.020707    0.024657   -0.002698
H     2.170375   -1.457470    0.175302   -0.119067   -0.119596    0.007476
H    -0.092514   -2.027651    0.984140   -0.278796    0.068058    0.004028
H    -1.842096    1.413605   -0.180550   -0.572247   -0.905994    0.061777
H     2.418550    0.884265   -0.017395   -0.703445    1.371977   -0.136004
H    -0.048971   -2.170119   -0.638302   -0.278255    0.064254   -0.030320
13
* Frequency(24) 1227.1737
C     1.372793    0.529851   -0.015036    0.011099    0.009713   -0.000529
C     1.302724   -0.794210    0.095800   -0.120527   -0.115497    0.006646
N    -0.008640   -1.463020    0.118827    0.084077   -0.017073    0.003573
C    -1.330555   -0.610659    0.008144   -0.104014    0.225539   -0.022260
N    -1.080705    0.709657   -0.097399   -0.091196   -0.238513    0.017852
C     0.172593    1.398876   -0.122183    0.285230    0.036171    0.004753
O    -2.344242   -1.219751    0.031049    0.096018    0.051887   -0.001647
O     0.201841    2.589695   -0.223265   -0.020707    0.024657   -0.002698
H     2.156844   -1.471062    0.176152   -0.119067   -0.119596    0.007476
H    -0.124198   -2.019917    0.984598   -0.278796    0.068058    0.004028
H    -1.907129    1.310644   -0.173530   -0.572247   -0.905994    0.061777
H     2.338608    1.040183   -0.032851   -0.703445    1.371977   -0.136004
H    -0.080594   -2.162817   -0.641747   -0.278255    0.064254   -0.030320
