13
* (null), Energy   -1000.0000000
C     1.628522    0.403282    0.009825    0.002781   -0.008982   -0.099533
C     1.558257   -0.920826    0.121541   -0.006677    0.021599    0.256849
N     0.246846   -1.589915    0.143551   -0.000009    0.000109   -0.003800
C    -1.074947   -0.737408    0.033678    0.010967   -0.034085   -0.397738
N    -0.825093    0.582903   -0.073451   -0.000190    0.000301    0.000354
C     0.428005    1.271956   -0.097784   -0.013323    0.041042    0.480889
O    -2.088804   -1.345922    0.058464   -0.003395    0.011458    0.135215
O     0.457572    2.462843   -0.197982    0.003564   -0.011335   -0.136414
H     2.412149   -1.597989    0.202997    0.026014   -0.084684   -0.969675
H     0.131582   -2.147641    1.008616   -0.487168   -0.082253   -0.119284
H    -1.651708    1.183769   -0.147738    0.005253   -0.016901   -0.199538
H     2.594425    0.913409   -0.007422    0.038386   -0.120569   -1.404973
H     0.175864   -2.288698   -0.617572    0.492099    0.063500   -0.104927
13
* Frequency(15)  669.9018
C     1.628838    0.402261   -0.001486    0.002781   -0.008982   -0.099533
C     1.557498   -0.918371    0.150731   -0.006677    0.021599    0.256849
N     0.246845   -1.589902    0.143119   -0.000009    0.000109   -0.003800
C    -1.073701   -0.741281   -0.011523    0.010967   -0.034085   -0.397738
N    -0.825114    0.582938   -0.073411   -0.000190    0.000301    0.000354
C     0.426491    1.276620   -0.043134   -0.013323    0.041042    0.480889
O    -2.089190   -1.344619    0.073831   -0.003395    0.011458    0.135215
O     0.457977    2.461554   -0.213485    0.003564   -0.011335   -0.136414
H     2.415105   -1.607613    0.092798    0.026014   -0.084684   -0.969675
H     0.076218   -2.156989    0.995060   -0.487168   -0.082253   -0.119284
H    -1.651111    1.181849   -0.170415    0.005253   -0.016901   -0.199538
H     2.598787    0.899707   -0.167090    0.038386   -0.120569   -1.404973
H     0.231789   -2.281482   -0.629497    0.492099    0.063500   -0.104927
13
* Frequency(15)  669.9018
C     1.629120    0.401351   -0.011572    0.002781   -0.008982   -0.099533
C     1.556822   -0.916182    0.176757   -0.006677    0.021599    0.256849
N     0.246844   -1.589891    0.142734   -0.000009    0.000109   -0.003800
C    -1.072590   -0.744735   -0.051826    0.010967   -0.034085   -0.397738
N    -0.825134    0.582968   -0.073375   -0.000190    0.000301    0.000354
C     0.425141    1.280779    0.005595   -0.013323    0.041042    0.480889
O    -2.089534   -1.343458    0.087532   -0.003395    0.011458    0.135215
O     0.458338    2.460406   -0.227308    0.003564   -0.011335   -0.136414
H     2.417741   -1.616194   -0.005459    0.026014   -0.084684   -0.969675
H     0.026854   -2.165324    0.982973   -0.487168   -0.082253   -0.119284
H    -1.650579    1.180136   -0.190634    0.005253   -0.016901   -0.199538
H     2.602677    0.887490   -0.309455    0.038386   -0.120569   -1.404973
H     0.281653   -2.275048   -0.640129    0.492099    0.063500   -0.104927
13
* Frequency(15)  669.9018
C     1.629337    0.400650   -0.019339    0.002781   -0.008982   -0.099533
C     1.556301   -0.914497    0.196800   -0.006677    0.021599    0.256849
N     0.246843   -1.589883    0.142438   -0.000009    0.000109   -0.003800
C    -1.071734   -0.747395   -0.082863    0.010967   -0.034085   -0.397738
N    -0.825148    0.582992   -0.073347   -0.000190    0.000301    0.000354
C     0.424101    1.283981    0.043120   -0.013323    0.041042    0.480889
O    -2.089799   -1.342564    0.098083   -0.003395    0.011458    0.135215
O     0.458616    2.459521   -0.237953    0.003564   -0.011335   -0.136414
H     2.419771   -1.622802   -0.081126    0.026014   -0.084684   -0.969675
H    -0.011162   -2.171742    0.973665   -0.487168   -0.082253   -0.119284
H    -1.650169    1.178817   -0.206204    0.005253   -0.016901   -0.199538
H     2.605672    0.878081   -0.419091    0.038386   -0.120569   -1.404973
H     0.320053   -2.270092   -0.648317    0.492099    0.063500   -0.104927
13
* Frequency(15)  669.9018
C     1.629466    0.400234   -0.023945    0.002781   -0.008982   -0.099533
C     1.555992   -0.913497    0.208688   -0.006677    0.021599    0.256849
N     0.246842   -1.589878    0.142262   -0.000009    0.000109   -0.003800
C    -1.071226   -0.748972   -0.101271    0.010967   -0.034085   -0.397738
N    -0.825157    0.583006   -0.073331   -0.000190    0.000301    0.000354
C     0.423485    1.285881    0.065377   -0.013323    0.041042    0.480889
O    -2.089956   -1.342034    0.104341   -0.003395    0.011458    0.135215
O     0.458781    2.458997   -0.244266    0.003564   -0.011335   -0.136414
H     2.420975   -1.626721   -0.126005    0.026014   -0.084684   -0.969675
H    -0.033709   -2.175549    0.968144   -0.487168   -0.082253   -0.119284
H    -1.649926    1.178035   -0.215439    0.005253   -0.016901   -0.199538
H     2.607449    0.872501   -0.484116    0.038386   -0.120569   -1.404973
H     0.342828   -2.267154   -0.653173    0.492099    0.063500   -0.104927
13
* Frequency(15)  669.9018
C     1.629492    0.400149   -0.024892    0.002781   -0.008982   -0.099533
C     1.555928   -0.913292    0.211131   -0.006677    0.021599    0.256849
N     0.246842   -1.589877    0.142226   -0.000009    0.000109   -0.003800
C    -1.071122   -0.749297   -0.105055    0.010967   -0.034085   -0.397738
N    -0.825159    0.583008   -0.073327   -0.000190    0.000301    0.000354
C     0.423358    1.286271    0.069952   -0.013323    0.041042    0.480889
O    -2.089988   -1.341925    0.105628   -0.003395    0.011458    0.135215
O     0.458815    2.458889   -0.245564    0.003564   -0.011335   -0.136414
H     2.421222   -1.627527   -0.135230    0.026014   -0.084684   -0.969675
H    -0.038344   -2.176332    0.967009   -0.487168   -0.082253   -0.119284
H    -1.649876    1.177874   -0.217338    0.005253   -0.016901   -0.199538
H     2.607814    0.871354   -0.497483    0.038386   -0.120569   -1.404973
H     0.347511   -2.266549   -0.654171    0.492099    0.063500   -0.104927
13
* Frequency(15)  669.9018
C     1.629414    0.400403   -0.022077    0.002781   -0.008982   -0.099533
C     1.556117   -0.913903    0.203867   -0.006677    0.021599    0.256849
N     0.246843   -1.589880    0.142333   -0.000009    0.000109   -0.003800
C    -1.071432   -0.748333   -0.093805    0.010967   -0.034085   -0.397738
N    -0.825154    0.583000   -0.073337   -0.000190    0.000301    0.000354
C     0.423735    1.285111    0.056351   -0.013323    0.041042    0.480889
O    -2.089892   -1.342249    0.101803   -0.003395    0.011458    0.135215
O     0.458714    2.459210   -0.241706    0.003564   -0.011335   -0.136414
H     2.420487   -1.625132   -0.107804    0.026014   -0.084684   -0.969675
H    -0.024565   -2.174005    0.970383   -0.487168   -0.082253   -0.119284
H    -1.650024    1.178352   -0.211694    0.005253   -0.016901   -0.199538
H     2.606729    0.874764   -0.457745    0.038386   -0.120569   -1.404973
H     0.333592   -2.268345   -0.651204    0.492099    0.063500   -0.104927
13
* Frequency(15)  669.9018
C     1.629238    0.400969   -0.015805    0.002781   -0.008982   -0.099533
C     1.556538   -0.915264    0.187681   -0.006677    0.021599    0.256849
N     0.246843   -1.589886    0.142573   -0.000009    0.000109   -0.003800
C    -1.072123   -0.746185   -0.068741    0.010967   -0.034085   -0.397738
N    -0.825142    0.582981   -0.073360   -0.000190    0.000301    0.000354
C     0.424574    1.282524    0.026046   -0.013323    0.041042    0.480889
O    -2.089678   -1.342971    0.093282   -0.003395    0.011458    0.135215
O     0.458490    2.459924   -0.233109    0.003564   -0.011335   -0.136414
H     2.418847   -1.619795   -0.046698    0.026014   -0.084684   -0.969675
H     0.006135   -2.168822    0.977900   -0.487168   -0.082253   -0.119284
H    -1.650355    1.179417   -0.199120    0.005253   -0.016901   -0.199538
H     2.604309    0.882362   -0.369207    0.038386   -0.120569   -1.404973
H     0.302581   -2.272347   -0.644591    0.492099    0.063500   -0.104927
13
* Frequency(15)  669.9018
C     1.628986    0.401785   -0.006755    0.002781   -0.008982   -0.099533
C     1.557145   -0.917228    0.164328   -0.006677    0.021599    0.256849
N     0.246844   -1.589896    0.142918   -0.000009    0.000109   -0.003800
C    -1.073121   -0.743086   -0.032578    0.010967   -0.034085   -0.397738
N    -0.825124    0.582954   -0.073392   -0.000190    0.000301    0.000354
C     0.425786    1.278793   -0.017677   -0.013323    0.041042    0.480889
O    -2.089370   -1.344013    0.080989   -0.003395    0.011458    0.135215
O     0.458166    2.460954   -0.220706    0.003564   -0.011335   -0.136414
H     2.416482   -1.612096    0.041467    0.026014   -0.084684   -0.969675
H     0.050429   -2.161343    0.988745   -0.487168   -0.082253   -0.119284
H    -1.650833    1.180954   -0.180977    0.005253   -0.016901   -0.199538
H     2.600819    0.893325   -0.241465    0.038386   -0.120569   -1.404973
H     0.257839   -2.278120   -0.635051    0.492099    0.063500   -0.104927
13
* Frequency(15)  669.9018
C     1.628683    0.402764    0.004091    0.002781   -0.008982   -0.099533
C     1.557873   -0.919581    0.136338   -0.006677    0.021599    0.256849
N     0.246845   -1.589908    0.143332   -0.000009    0.000109   -0.003800
C    -1.074316   -0.739371    0.010765    0.010967   -0.034085   -0.397738
N    -0.825104    0.582921   -0.073431   -0.000190    0.000301    0.000354
C     0.427237    1.274320   -0.070081   -0.013323    0.041042    0.480889
O    -2.089000   -1.345262    0.066254   -0.003395    0.011458    0.135215
O     0.457777    2.462190   -0.205841    0.003564   -0.011335   -0.136414
H     2.413647   -1.602867    0.147136    0.026014   -0.084684   -0.969675
H     0.103517   -2.152380    1.001744   -0.487168   -0.082253   -0.119284
H    -1.651405    1.182796   -0.159233    0.005253   -0.016901   -0.199538
H     2.596636    0.906463   -0.088360    0.038386   -0.120569   -1.404973
H     0.204213   -2.285040   -0.623617    0.492099    0.063500   -0.104927
13
* Frequency(15)  669.9018
C     1.628362    0.403799    0.015559    0.002781   -0.008982   -0.099533
C     1.558642   -0.922070    0.106745   -0.006677    0.021599    0.256849
N     0.246846   -1.589921    0.143770   -0.000009    0.000109   -0.003800
C    -1.075579   -0.735444    0.056591    0.010967   -0.034085   -0.397738
N    -0.825082    0.582886   -0.073471   -0.000190    0.000301    0.000354
C     0.428772    1.269592   -0.125487   -0.013323    0.041042    0.480889
O    -2.088609   -1.346582    0.050675   -0.003395    0.011458    0.135215
O     0.457367    2.463496   -0.190124    0.003564   -0.011335   -0.136414
H     2.410650   -1.593110    0.258858    0.026014   -0.084684   -0.969675
H     0.159647   -2.142903    1.015487   -0.487168   -0.082253   -0.119284
H    -1.652011    1.184743   -0.136243    0.005253   -0.016901   -0.199538
H     2.592214    0.920355    0.073516    0.038386   -0.120569   -1.404973
H     0.147515   -2.292357   -0.611527    0.492099    0.063500   -0.104927
13
* Frequency(15)  669.9018
C     1.628059    0.404778    0.026406    0.002781   -0.008982   -0.099533
C     1.559369   -0.924424    0.078755   -0.006677    0.021599    0.256849
N     0.246847   -1.589933    0.144184   -0.000009    0.000109   -0.003800
C    -1.076774   -0.731730    0.099934    0.010967   -0.034085   -0.397738
N    -0.825061    0.582853   -0.073510   -0.000190    0.000301    0.000354
C     0.430224    1.265119   -0.177891   -0.013323    0.041042    0.480889
O    -2.088239   -1.347830    0.035940   -0.003395    0.011458    0.135215
O     0.456978    2.464731   -0.175258    0.003564   -0.011335   -0.136414
H     2.407815   -1.583882    0.364527    0.026014   -0.084684   -0.969675
H     0.212735   -2.133940    1.028486   -0.487168   -0.082253   -0.119284
H    -1.652583    1.186585   -0.114499    0.005253   -0.016901   -0.199538
H     2.588030    0.933494    0.226621    0.038386   -0.120569   -1.404973
H     0.093889   -2.299276   -0.600093    0.492099    0.063500   -0.104927
13
* Frequency(15)  669.9018
C     1.627806    0.405594    0.035455    0.002781   -0.008982   -0.099533
C     1.559977   -0.926388    0.055402   -0.006677    0.021599    0.256849
N     0.246848   -1.589943    0.144530   -0.000009    0.000109   -0.003800
C    -1.077771   -0.728631    0.136097    0.010967   -0.034085   -0.397738
N    -0.825044    0.582826   -0.073542   -0.000190    0.000301    0.000354
C     0.431436    1.261387   -0.221615   -0.013323    0.041042    0.480889
O    -2.087930   -1.348872    0.023646   -0.003395    0.011458    0.135215
O     0.456654    2.465761   -0.162855    0.003564   -0.011335   -0.136414
H     2.405450   -1.576182    0.452691    0.026014   -0.084684   -0.969675
H     0.257030   -2.126461    1.039332   -0.487168   -0.082253   -0.119284
H    -1.653061    1.188121   -0.096356    0.005253   -0.016901   -0.199538
H     2.584540    0.944456    0.354363    0.038386   -0.120569   -1.404973
H     0.049147   -2.305050   -0.590553    0.492099    0.063500   -0.104927
13
* Frequency(15)  669.9018
C     1.627631    0.406160    0.041728    0.002781   -0.008982   -0.099533
C     1.560397   -0.927749    0.039216   -0.006677    0.021599    0.256849
N     0.246849   -1.589949    0.144769   -0.000009    0.000109   -0.003800
C    -1.078463   -0.726483    0.161161    0.010967   -0.034085   -0.397738
N    -0.825032    0.582807   -0.073565   -0.000190    0.000301    0.000354
C     0.432275    1.258801   -0.251919   -0.013323    0.041042    0.480889
O    -2.087716   -1.349594    0.015125   -0.003395    0.011458    0.135215
O     0.456430    2.466476   -0.154259    0.003564   -0.011335   -0.136414
H     2.403810   -1.570846    0.513798    0.026014   -0.084684   -0.969675
H     0.287730   -2.121278    1.046848   -0.487168   -0.082253   -0.119284
H    -1.653392    1.189187   -0.083782    0.005253   -0.016901   -0.199538
H     2.582121    0.952054    0.442901    0.038386   -0.120569   -1.404973
H     0.018136   -2.309051   -0.583941    0.492099    0.063500   -0.104927
13
* Frequency(15)  669.9018
C     1.627552    0.406414    0.044543    0.002781   -0.008982   -0.099533
C     1.560586   -0.928360    0.031951   -0.006677    0.021599    0.256849
N     0.246849   -1.589953    0.144876   -0.000009    0.000109   -0.003800
C    -1.078773   -0.725519    0.172411    0.010967   -0.034085   -0.397738
N    -0.825027    0.582798   -0.073575   -0.000190    0.000301    0.000354
C     0.432652    1.257640   -0.265520   -0.013323    0.041042    0.480889
O    -2.087620   -1.349918    0.011301   -0.003395    0.011458    0.135215
O     0.456329    2.466796   -0.150400    0.003564   -0.011335   -0.136414
H     2.403075   -1.568451    0.541224    0.026014   -0.084684   -0.969675
H     0.301509   -2.118951    1.050222   -0.487168   -0.082253   -0.119284
H    -1.653540    1.189665   -0.078138    0.005253   -0.016901   -0.199538
H     2.581036    0.955464    0.482639    0.038386   -0.120569   -1.404973
H     0.004218   -2.310847   -0.580973    0.492099    0.063500   -0.104927
13
* Frequency(15)  669.9018
C     1.627579    0.406329    0.043596    0.002781   -0.008982   -0.099533
C     1.560523   -0.928154    0.034395   -0.006677    0.021599    0.256849
N     0.246849   -1.589952    0.144840   -0.000009    0.000109   -0.003800
C    -1.078668   -0.725843    0.168626    0.010967   -0.034085   -0.397738
N    -0.825028    0.582801   -0.073571   -0.000190    0.000301    0.000354
C     0.432525    1.258031   -0.260945   -0.013323    0.041042    0.480889
O    -2.087652   -1.349809    0.012587   -0.003395    0.011458    0.135215
O     0.456363    2.466689   -0.151698    0.003564   -0.011335   -0.136414
H     2.403322   -1.569256    0.531998    0.026014   -0.084684   -0.969675
H     0.296874   -2.119734    1.049087   -0.487168   -0.082253   -0.119284
H    -1.653490    1.189504   -0.080037    0.005253   -0.016901   -0.199538
H     2.581401    0.954317    0.469272    0.038386   -0.120569   -1.404973
H     0.008900   -2.310243   -0.581971    0.492099    0.063500   -0.104927
13
* Frequency(15)  669.9018
C     1.627707    0.405913    0.038989    0.002781   -0.008982   -0.099533
C     1.560214   -0.927154    0.046283   -0.006677    0.021599    0.256849
N     0.246848   -1.589946    0.144664   -0.000009    0.000109   -0.003800
C    -1.078161   -0.727421    0.150218    0.010967   -0.034085   -0.397738
N    -0.825037    0.582815   -0.073555   -0.000190    0.000301    0.000354
C     0.431909    1.259930   -0.238688   -0.013323    0.041042    0.480889
O    -2.087809   -1.349279    0.018845   -0.003395    0.011458    0.135215
O     0.456528    2.466164   -0.158012    0.003564   -0.011335   -0.136414
H     2.404526   -1.573176    0.487120    0.026014   -0.084684   -0.969675
H     0.274327   -2.123541    1.043567   -0.487168   -0.082253   -0.119284
H    -1.653247    1.188722   -0.089272    0.005253   -0.016901   -0.199538
H     2.583177    0.948737    0.404247    0.038386   -0.120569   -1.404973
H     0.031675   -2.307304   -0.586828    0.492099    0.063500   -0.104927
13
* Frequency(15)  669.9018
C     1.627924    0.405212    0.031222    0.002781   -0.008982   -0.099533
C     1.559693   -0.925469    0.066326   -0.006677    0.021599    0.256849
N     0.246848   -1.589938    0.144368   -0.000009    0.000109   -0.003800
C    -1.077305   -0.730081    0.119181    0.010967   -0.034085   -0.397738
N    -0.825052    0.582839   -0.073527   -0.000190    0.000301    0.000354
C     0.430869    1.263133   -0.201163   -0.013323    0.041042    0.480889
O    -2.088074   -1.348385    0.029397   -0.003395    0.011458    0.135215
O     0.456806    2.465279   -0.168657    0.003564   -0.011335   -0.136414
H     2.406556   -1.579784    0.411452    0.026014   -0.084684   -0.969675
H     0.236311   -2.129959    1.034259   -0.487168   -0.082253   -0.119284
H    -1.652837    1.187403   -0.104842    0.005253   -0.016901   -0.199538
H     2.586173    0.939328    0.294611    0.038386   -0.120569   -1.404973
H     0.070075   -2.302349   -0.595015    0.492099    0.063500   -0.104927
13
* Frequency(15)  669.9018
C     1.628206    0.404302    0.021137    0.002781   -0.008982   -0.099533
C     1.559016   -0.923280    0.092352   -0.006677    0.021599    0.256849
N     0.246847   -1.589927    0.143983   -0.000009    0.000109   -0.003800
C    -1.076194   -0.733534    0.078879    0.010967   -0.034085   -0.397738
N    -0.825071    0.582869   -0.073491   -0.000190    0.000301    0.000354
C     0.429519    1.267292   -0.152435   -0.013323    0.041042    0.480889
O    -2.088418   -1.347224    0.043098   -0.003395    0.011458    0.135215
O     0.457167    2.464131   -0.182479    0.003564   -0.011335   -0.136414
H     2.409192   -1.588365    0.313195    0.026014   -0.084684   -0.969675
H     0.186946   -2.138294    1.022172   -0.487168   -0.082253   -0.119284
H    -1.652305    1.185690   -0.125062    0.005253   -0.016901   -0.199538
H     2.590062    0.927111    0.152246    0.038386   -0.120569   -1.404973
H     0.119940   -2.295915   -0.605648    0.492099    0.063500   -0.104927
13
* Frequency(15)  669.9018
C     1.628522    0.403282    0.009825    0.002781   -0.008982   -0.099533
C     1.558257   -0.920826    0.121541   -0.006677    0.021599    0.256849
N     0.246846   -1.589915    0.143551   -0.000009    0.000109   -0.003800
C    -1.074947   -0.737408    0.033678    0.010967   -0.034085   -0.397738
N    -0.825093    0.582903   -0.073451   -0.000190    0.000301    0.000354
C     0.428005    1.271956   -0.097784   -0.013323    0.041042    0.480889
O    -2.088804   -1.345922    0.058464   -0.003395    0.011458    0.135215
O     0.457572    2.462843   -0.197982    0.003564   -0.011335   -0.136414
H     2.412149   -1.597989    0.202997    0.026014   -0.084684   -0.969675
H     0.131582   -2.147641    1.008616   -0.487168   -0.082253   -0.119284
H    -1.651708    1.183769   -0.147738    0.005253   -0.016901   -0.199538
H     2.594425    0.913409   -0.007422    0.038386   -0.120569   -1.404973
H     0.175864   -2.288698   -0.617572    0.492099    0.063500   -0.104927
