13
* (null), Energy   -1000.0000000
C     1.372793    0.529851   -0.015036   -0.005970    0.017248    0.203560
C     1.302724   -0.794210    0.095800   -0.001563    0.004151    0.049225
N    -0.008640   -1.463020    0.118827    0.004706   -0.015825   -0.181479
C    -1.330555   -0.610659    0.008144   -0.003220    0.011042    0.124895
N    -1.080705    0.709657   -0.097399   -0.029812    0.091579    1.066547
C     0.172593    1.398876   -0.122183   -0.003220    0.009033    0.106281
O    -2.344242   -1.219751    0.031049    0.014095   -0.040223   -0.471541
O     0.201841    2.589695   -0.223265    0.019597   -0.060539   -0.706173
H     2.156844   -1.471062    0.176152   -0.000398    0.001108    0.011496
H    -0.124198   -2.019917    0.984598    0.020426   -0.334638   -0.384646
H    -1.907129    1.310644   -0.173530   -0.033687    0.102613    1.195715
H     2.338608    1.040183   -0.032851   -0.007062    0.020655    0.242412
H    -0.080594   -2.162817   -0.641747    0.001344    0.262696   -0.437757
13
* Frequency(7)  132.8747
C     1.372114    0.531811    0.008098   -0.005970    0.017248    0.203560
C     1.302546   -0.793738    0.101394   -0.001563    0.004151    0.049225
N    -0.008105   -1.464819    0.098203    0.004706   -0.015825   -0.181479
C    -1.330921   -0.609404    0.022338   -0.003220    0.011042    0.124895
N    -1.084093    0.720064    0.023809   -0.029812    0.091579    1.066547
C     0.172227    1.399902   -0.110104   -0.003220    0.009033    0.106281
O    -2.342640   -1.224322   -0.022539    0.014095   -0.040223   -0.471541
O     0.204068    2.582815   -0.303518    0.019597   -0.060539   -0.706173
H     2.156798   -1.470936    0.177458   -0.000398    0.001108    0.011496
H    -0.121876   -2.057947    0.940885    0.020426   -0.334638   -0.384646
H    -1.910957    1.322305   -0.037643   -0.033687    0.102613    1.195715
H     2.337805    1.042530   -0.005303   -0.007062    0.020655    0.242412
H    -0.080441   -2.132963   -0.691496    0.001344    0.262696   -0.437757
13
* Frequency(7)  132.8747
C     1.371509    0.533559    0.028724   -0.005970    0.017248    0.203560
C     1.302388   -0.793317    0.106382   -0.001563    0.004151    0.049225
N    -0.007629   -1.466422    0.079814    0.004706   -0.015825   -0.181479
C    -1.331248   -0.608285    0.034994   -0.003220    0.011042    0.124895
N    -1.087114    0.729344    0.131882   -0.029812    0.091579    1.066547
C     0.171901    1.400818   -0.099335   -0.003220    0.009033    0.106281
O    -2.341212   -1.228398   -0.070320    0.014095   -0.040223   -0.471541
O     0.206054    2.576681   -0.375074    0.019597   -0.060539   -0.706173
H     2.156758   -1.470823    0.178623   -0.000398    0.001108    0.011496
H    -0.119807   -2.091855    0.901909    0.020426   -0.334638   -0.384646
H    -1.914371    1.332703    0.083519   -0.033687    0.102613    1.195715
H     2.337089    1.044623    0.019261   -0.007062    0.020655    0.242412
H    -0.080305   -2.106344   -0.735854    0.001344    0.262696   -0.437757
13
* Frequency(7)  132.8747
C     1.371043    0.534905    0.044609   -0.005970    0.017248    0.203560
C     1.302266   -0.792993    0.110224   -0.001563    0.004151    0.049225
N    -0.007261   -1.467657    0.065652    0.004706   -0.015825   -0.181479
C    -1.331499   -0.607424    0.044740   -0.003220    0.011042    0.124895
N    -1.089440    0.736490    0.215108   -0.029812    0.091579    1.066547
C     0.171650    1.401523   -0.091042   -0.003220    0.009033    0.106281
O    -2.340112   -1.231536   -0.107117    0.014095   -0.040223   -0.471541
O     0.207583    2.571957   -0.430179    0.019597   -0.060539   -0.706173
H     2.156727   -1.470737    0.179520   -0.000398    0.001108    0.011496
H    -0.118213   -2.117968    0.871894    0.020426   -0.334638   -0.384646
H    -1.916999    1.340710    0.176825   -0.033687    0.102613    1.195715
H     2.336538    1.046235    0.038177   -0.007062    0.020655    0.242412
H    -0.080200   -2.085845   -0.770014    0.001344    0.262696   -0.437757
13
* Frequency(7)  132.8747
C     1.370767    0.535703    0.054030   -0.005970    0.017248    0.203560
C     1.302193   -0.792801    0.112502   -0.001563    0.004151    0.049225
N    -0.007044   -1.468390    0.057253    0.004706   -0.015825   -0.181479
C    -1.331648   -0.606913    0.050520   -0.003220    0.011042    0.124895
N    -1.090820    0.740729    0.264470   -0.029812    0.091579    1.066547
C     0.171501    1.401941   -0.086123   -0.003220    0.009033    0.106281
O    -2.339460   -1.233398   -0.128940    0.014095   -0.040223   -0.471541
O     0.208490    2.569155   -0.462862    0.019597   -0.060539   -0.706173
H     2.156709   -1.470686    0.180052   -0.000398    0.001108    0.011496
H    -0.117267   -2.133456    0.854092    0.020426   -0.334638   -0.384646
H    -1.918559    1.345459    0.232165   -0.033687    0.102613    1.195715
H     2.336211    1.047191    0.049396   -0.007062    0.020655    0.242412
H    -0.080138   -2.073687   -0.790274    0.001344    0.262696   -0.437757
13
* Frequency(7)  132.8747
C     1.370710    0.535867    0.055967   -0.005970    0.017248    0.203560
C     1.302179   -0.792762    0.112970   -0.001563    0.004151    0.049225
N    -0.006999   -1.468540    0.055527    0.004706   -0.015825   -0.181479
C    -1.331679   -0.606808    0.051708   -0.003220    0.011042    0.124895
N    -1.091104    0.741600    0.274618   -0.029812    0.091579    1.066547
C     0.171470    1.402027   -0.085112   -0.003220    0.009033    0.106281
O    -2.339325   -1.233781   -0.133427    0.014095   -0.040223   -0.471541
O     0.208677    2.568579   -0.469581    0.019597   -0.060539   -0.706173
H     2.156705   -1.470675    0.180162   -0.000398    0.001108    0.011496
H    -0.117073   -2.136640    0.850432    0.020426   -0.334638   -0.384646
H    -1.918879    1.346436    0.243541   -0.033687    0.102613    1.195715
H     2.336144    1.047387    0.051703   -0.007062    0.020655    0.242412
H    -0.080125   -2.071187   -0.794439    0.001344    0.262696   -0.437757
13
* Frequency(7)  132.8747
C     1.370879    0.535379    0.050209   -0.005970    0.017248    0.203560
C     1.302223   -0.792879    0.111578   -0.001563    0.004151    0.049225
N    -0.007132   -1.468093    0.060660    0.004706   -0.015825   -0.181479
C    -1.331588   -0.607120    0.048176   -0.003220    0.011042    0.124895
N    -1.090260    0.739010    0.244452   -0.029812    0.091579    1.066547
C     0.171561    1.401771   -0.088118   -0.003220    0.009033    0.106281
O    -2.339724   -1.232643   -0.120090    0.014095   -0.040223   -0.471541
O     0.208122    2.570291   -0.449608    0.019597   -0.060539   -0.706173
H     2.156716   -1.470706    0.179836   -0.000398    0.001108    0.011496
H    -0.117651   -2.127175    0.861311    0.020426   -0.334638   -0.384646
H    -1.917926    1.343533    0.209722   -0.033687    0.102613    1.195715
H     2.336344    1.046803    0.044847   -0.007062    0.020655    0.242412
H    -0.080163   -2.078617   -0.782057    0.001344    0.262696   -0.437757
13
* Frequency(7)  132.8747
C     1.371255    0.534293    0.037381   -0.005970    0.017248    0.203560
C     1.302321   -0.793141    0.108476   -0.001563    0.004151    0.049225
N    -0.007428   -1.467095    0.072096    0.004706   -0.015825   -0.181479
C    -1.331385   -0.607816    0.040305   -0.003220    0.011042    0.124895
N    -1.088382    0.733239    0.177241   -0.029812    0.091579    1.066547
C     0.171764    1.401202   -0.094815   -0.003220    0.009033    0.106281
O    -2.340612   -1.230108   -0.090375    0.014095   -0.040223   -0.471541
O     0.206887    2.574106   -0.405107    0.019597   -0.060539   -0.706173
H     2.156741   -1.470776    0.179112   -0.000398    0.001108    0.011496
H    -0.118938   -2.106087    0.885551    0.020426   -0.334638   -0.384646
H    -1.915803    1.337067    0.134371   -0.033687    0.102613    1.195715
H     2.336789    1.045501    0.029570   -0.007062    0.020655    0.242412
H    -0.080248   -2.095172   -0.754471    0.001344    0.262696   -0.437757
13
* Frequency(7)  132.8747
C     1.371798    0.532724    0.018873   -0.005970    0.017248    0.203560
C     1.302463   -0.793518    0.104000   -0.001563    0.004151    0.049225
N    -0.007856   -1.465656    0.088596    0.004706   -0.015825   -0.181479
C    -1.331092   -0.608820    0.028950   -0.003220    0.011042    0.124895
N    -1.085671    0.724912    0.080268   -0.029812    0.091579    1.066547
C     0.172057    1.400381   -0.104478   -0.003220    0.009033    0.106281
O    -2.341894   -1.226451   -0.047501    0.014095   -0.040223   -0.471541
O     0.205106    2.579611   -0.340900    0.019597   -0.060539   -0.706173
H     2.156777   -1.470877    0.178067   -0.000398    0.001108    0.011496
H    -0.120795   -2.075661    0.920523    0.020426   -0.334638   -0.384646
H    -1.912740    1.327737    0.025654   -0.033687    0.102613    1.195715
H     2.337431    1.043623    0.007530   -0.007062    0.020655    0.242412
H    -0.080370   -2.119057   -0.714669    0.001344    0.262696   -0.437757
13
* Frequency(7)  132.8747
C     1.372449    0.530845   -0.003309   -0.005970    0.017248    0.203560
C     1.302634   -0.793970    0.098636   -0.001563    0.004151    0.049225
N    -0.008369   -1.463932    0.108373    0.004706   -0.015825   -0.181479
C    -1.330741   -0.610023    0.015339   -0.003220    0.011042    0.124895
N    -1.082422    0.714933   -0.035957   -0.029812    0.091579    1.066547
C     0.172408    1.399396   -0.116060   -0.003220    0.009033    0.106281
O    -2.343430   -1.222068    0.003884    0.014095   -0.040223   -0.471541
O     0.202970    2.586208   -0.263946    0.019597   -0.060539   -0.706173
H     2.156821   -1.470998    0.176814   -0.000398    0.001108    0.011496
H    -0.123021   -2.039195    0.962439    0.020426   -0.334638   -0.384646
H    -1.909069    1.316555   -0.104647   -0.033687    0.102613    1.195715
H     2.338201    1.041373   -0.018887   -0.007062    0.020655    0.242412
H    -0.080516   -2.147684   -0.666966    0.001344    0.262696   -0.437757
13
* Frequency(7)  132.8747
C     1.373137    0.528857   -0.026763   -0.005970    0.017248    0.203560
C     1.302814   -0.794449    0.092964   -0.001563    0.004151    0.049225
N    -0.008911   -1.462109    0.129282    0.004706   -0.015825   -0.181479
C    -1.330370   -0.611295    0.000949   -0.003220    0.011042    0.124895
N    -1.078988    0.704381   -0.158840   -0.029812    0.091579    1.066547
C     0.172779    1.398355   -0.128305   -0.003220    0.009033    0.106281
O    -2.345054   -1.217434    0.058213    0.014095   -0.040223   -0.471541
O     0.200712    2.593183   -0.182583    0.019597   -0.060539   -0.706173
H     2.156866   -1.471126    0.175490   -0.000398    0.001108    0.011496
H    -0.125374   -2.000639    1.006757    0.020426   -0.334638   -0.384646
H    -1.905188    1.304732   -0.242413   -0.033687    0.102613    1.195715
H     2.339014    1.038993   -0.046816   -0.007062    0.020655    0.242412
H    -0.080671   -2.177950   -0.616529    0.001344    0.262696   -0.437757
13
* Frequency(7)  132.8747
C     1.373787    0.526978   -0.048946   -0.005970    0.017248    0.203560
C     1.302984   -0.794901    0.087600   -0.001563    0.004151    0.049225
N    -0.009424   -1.460384    0.149058    0.004706   -0.015825   -0.181479
C    -1.330019   -0.612499   -0.012661   -0.003220    0.011042    0.124895
N    -1.075739    0.694402   -0.275066   -0.029812    0.091579    1.066547
C     0.173130    1.397371   -0.139887   -0.003220    0.009033    0.106281
O    -2.346590   -1.213051    0.109599    0.014095   -0.040223   -0.471541
O     0.198577    2.599780   -0.105629    0.019597   -0.060539   -0.706173
H     2.156910   -1.471246    0.174237   -0.000398    0.001108    0.011496
H    -0.127600   -1.964172    1.048673    0.020426   -0.334638   -0.384646
H    -1.901517    1.293550   -0.372714   -0.033687    0.102613    1.195715
H     2.339784    1.036742   -0.073233   -0.007062    0.020655    0.242412
H    -0.080817   -2.206577   -0.568825    0.001344    0.262696   -0.437757
13
* Frequency(7)  132.8747
C     1.374330    0.525410   -0.067454   -0.005970    0.017248    0.203560
C     1.303127   -0.795278    0.083125   -0.001563    0.004151    0.049225
N    -0.009852   -1.458945    0.165559    0.004706   -0.015825   -0.181479
C    -1.329726   -0.613503   -0.024016   -0.003220    0.011042    0.124895
N    -1.073028    0.686075   -0.372038   -0.029812    0.091579    1.066547
C     0.173422    1.396550   -0.149550   -0.003220    0.009033    0.106281
O    -2.347871   -1.209393    0.152472    0.014095   -0.040223   -0.471541
O     0.196795    2.605284   -0.041423    0.019597   -0.060539   -0.706173
H     2.156946   -1.471347    0.173192   -0.000398    0.001108    0.011496
H    -0.129457   -1.933746    1.083646    0.020426   -0.334638   -0.384646
H    -1.898454    1.284220   -0.481431   -0.033687    0.102613    1.195715
H     2.340426    1.034864   -0.095273   -0.007062    0.020655    0.242412
H    -0.080940   -2.230462   -0.529023    0.001344    0.262696   -0.437757
13
* Frequency(7)  132.8747
C     1.374706    0.524323   -0.080281   -0.005970    0.017248    0.203560
C     1.303225   -0.795540    0.080023   -0.001563    0.004151    0.049225
N    -0.010148   -1.457948    0.176995    0.004706   -0.015825   -0.181479
C    -1.329523   -0.614198   -0.031887   -0.003220    0.011042    0.124895
N    -1.071150    0.680304   -0.439249   -0.029812    0.091579    1.066547
C     0.173625    1.395981   -0.156248   -0.003220    0.009033    0.106281
O    -2.348760   -1.206859    0.182187    0.014095   -0.040223   -0.471541
O     0.195560    2.609099    0.003078    0.019597   -0.060539   -0.706173
H     2.156971   -1.471417    0.172467   -0.000398    0.001108    0.011496
H    -0.130744   -1.912658    1.107885    0.020426   -0.334638   -0.384646
H    -1.896331    1.277754   -0.556781   -0.033687    0.102613    1.195715
H     2.340871    1.033563   -0.110549   -0.007062    0.020655    0.242412
H    -0.081024   -2.247017   -0.501437    0.001344    0.262696   -0.437757
13
* Frequency(7)  132.8747
C     1.374875    0.523835   -0.086039   -0.005970    0.017248    0.203560
C     1.303269   -0.795657    0.078630   -0.001563    0.004151    0.049225
N    -0.010281   -1.457501    0.182128    0.004706   -0.015825   -0.181479
C    -1.329432   -0.614511   -0.035419   -0.003220    0.011042    0.124895
N    -1.070306    0.677714   -0.469415   -0.029812    0.091579    1.066547
C     0.173716    1.395725   -0.159254   -0.003220    0.009033    0.106281
O    -2.349158   -1.205721    0.195524    0.014095   -0.040223   -0.471541
O     0.195006    2.610811    0.023052    0.019597   -0.060539   -0.706173
H     2.156982   -1.471448    0.172142   -0.000398    0.001108    0.011496
H    -0.131322   -1.903194    1.118765    0.020426   -0.334638   -0.384646
H    -1.895379    1.274852   -0.590601   -0.033687    0.102613    1.195715
H     2.341071    1.032978   -0.117406   -0.007062    0.020655    0.242412
H    -0.081062   -2.254447   -0.489056    0.001344    0.262696   -0.437757
13
* Frequency(7)  132.8747
C     1.374818    0.523999   -0.084102   -0.005970    0.017248    0.203560
C     1.303254   -0.795618    0.079099   -0.001563    0.004151    0.049225
N    -0.010237   -1.457651    0.180401    0.004706   -0.015825   -0.181479
C    -1.329463   -0.614406   -0.034231   -0.003220    0.011042    0.124895
N    -1.070590    0.678585   -0.459267   -0.029812    0.091579    1.066547
C     0.173686    1.395811   -0.158243   -0.003220    0.009033    0.106281
O    -2.349024   -1.206104    0.191038    0.014095   -0.040223   -0.471541
O     0.195192    2.610235    0.016333    0.019597   -0.060539   -0.706173
H     2.156978   -1.471438    0.172251   -0.000398    0.001108    0.011496
H    -0.131128   -1.906378    1.115105    0.020426   -0.334638   -0.384646
H    -1.895699    1.275828   -0.579224   -0.033687    0.102613    1.195715
H     2.341004    1.033175   -0.115099   -0.007062    0.020655    0.242412
H    -0.081050   -2.251947   -0.493221    0.001344    0.262696   -0.437757
13
* Frequency(7)  132.8747
C     1.374542    0.524797   -0.074681   -0.005970    0.017248    0.203560
C     1.303182   -0.795426    0.081377   -0.001563    0.004151    0.049225
N    -0.010019   -1.458384    0.172002    0.004706   -0.015825   -0.181479
C    -1.329612   -0.613895   -0.028451   -0.003220    0.011042    0.124895
N    -1.071970    0.682824   -0.409906   -0.029812    0.091579    1.066547
C     0.173537    1.396229   -0.153324   -0.003220    0.009033    0.106281
O    -2.348372   -1.207965    0.169214    0.014095   -0.040223   -0.471541
O     0.196099    2.607434   -0.016350    0.019597   -0.060539   -0.706173
H     2.156960   -1.471386    0.172784   -0.000398    0.001108    0.011496
H    -0.130183   -1.921865    1.097303    0.020426   -0.334638   -0.384646
H    -1.897258    1.280577   -0.523884   -0.033687    0.102613    1.195715
H     2.340677    1.034131   -0.103880   -0.007062    0.020655    0.242412
H    -0.080987   -2.239789   -0.513481    0.001344    0.262696   -0.437757
13
* Frequency(7)  132.8747
C     1.374076    0.526143   -0.058796   -0.005970    0.017248    0.203560
C     1.303060   -0.795102    0.085218   -0.001563    0.004151    0.049225
N    -0.009652   -1.459618    0.157840    0.004706   -0.015825   -0.181479
C    -1.329863   -0.613033   -0.018705   -0.003220    0.011042    0.124895
N    -1.074296    0.689970   -0.326679   -0.029812    0.091579    1.066547
C     0.173285    1.396934   -0.145030   -0.003220    0.009033    0.106281
O    -2.347272   -1.211104    0.132418    0.014095   -0.040223   -0.471541
O     0.197628    2.602710   -0.071456    0.019597   -0.060539   -0.706173
H     2.156929   -1.471300    0.173681   -0.000398    0.001108    0.011496
H    -0.128589   -1.947978    1.067287    0.020426   -0.334638   -0.384646
H    -1.899887    1.288584   -0.430578   -0.033687    0.102613    1.195715
H     2.340126    1.035743   -0.084964   -0.007062    0.020655    0.242412
H    -0.080882   -2.219290   -0.547641    0.001344    0.262696   -0.437757
13
* Frequency(7)  132.8747
C     1.373471    0.527891   -0.038170   -0.005970    0.017248    0.203560
C     1.302902   -0.794681    0.090206   -0.001563    0.004151    0.049225
N    -0.009175   -1.461222    0.139451    0.004706   -0.015825   -0.181479
C    -1.330190   -0.611914   -0.006049   -0.003220    0.011042    0.124895
N    -1.077317    0.699250   -0.218606   -0.029812    0.091579    1.066547
C     0.172959    1.397849   -0.134261   -0.003220    0.009033    0.106281
O    -2.345844   -1.215180    0.084637    0.014095   -0.040223   -0.471541
O     0.199614    2.596575   -0.143012    0.019597   -0.060539   -0.706173
H     2.156889   -1.471188    0.174845   -0.000398    0.001108    0.011496
H    -0.126519   -1.981887    1.028311    0.020426   -0.334638   -0.384646
H    -1.903300    1.298982   -0.309417   -0.033687    0.102613    1.195715
H     2.339410    1.037835   -0.060400   -0.007062    0.020655    0.242412
H    -0.080746   -2.192671   -0.591998    0.001344    0.262696   -0.437757
13
* Frequency(7)  132.8747
C     1.372793    0.529851   -0.015036   -0.005970    0.017248    0.203560
C     1.302724   -0.794210    0.095800   -0.001563    0.004151    0.049225
N    -0.008640   -1.463020    0.118827    0.004706   -0.015825   -0.181479
C    -1.330555   -0.610659    0.008144   -0.003220    0.011042    0.124895
N    -1.080705    0.709657   -0.097399   -0.029812    0.091579    1.066547
C     0.172593    1.398876   -0.122183   -0.003220    0.009033    0.106281
O    -2.344242   -1.219751    0.031049    0.014095   -0.040223   -0.471541
O     0.201841    2.589695   -0.223265    0.019597   -0.060539   -0.706173
H     2.156844   -1.471062    0.176152   -0.000398    0.001108    0.011496
H    -0.124198   -2.019917    0.984598    0.020426   -0.334638   -0.384646
H    -1.907129    1.310644   -0.173530   -0.033687    0.102613    1.195715
H     2.338608    1.040183   -0.032851   -0.007062    0.020655    0.242412
H    -0.080594   -2.162817   -0.641747    0.001344    0.262696   -0.437757
