13
* (null), Energy   -1000.0000000
C     1.628522    0.403282    0.009825   -0.006634    0.021521    0.251078
C     1.558257   -0.920826    0.121541    0.004097   -0.013256   -0.154630
N     0.246846   -1.589915    0.143551    0.000909   -0.003138   -0.036174
C    -1.074947   -0.737408    0.033678   -0.000568    0.001918    0.022575
N    -0.825093    0.582903   -0.073451   -0.000154    0.000045    0.000546
C     0.428005    1.271956   -0.097784    0.001295   -0.003932   -0.046232
O    -2.088804   -1.345922    0.058464    0.000145   -0.000373   -0.004663
O     0.457572    2.462843   -0.197982   -0.000393    0.001166    0.014193
H     2.412149   -1.597989    0.202997   -0.029418    0.094997    1.096508
H     0.131582   -2.147641    1.008616    0.038790    0.068077    0.013630
H    -1.651708    1.183769   -0.147738    0.000425   -0.002365   -0.025449
H     2.594425    0.913409   -0.007422    0.044948   -0.139835   -1.631268
H     0.175864   -2.288698   -0.617572   -0.039728   -0.064961    0.023036
13
* Frequency(22)  997.9881
C     1.627768    0.405727    0.038359   -0.006634    0.021521    0.251078
C     1.558723   -0.922332    0.103968    0.004097   -0.013256   -0.154630
N     0.246949   -1.590271    0.139440    0.000909   -0.003138   -0.036174
C    -1.075012   -0.737190    0.036243   -0.000568    0.001918    0.022575
N    -0.825110    0.582908   -0.073389   -0.000154    0.000045    0.000546
C     0.428152    1.271509   -0.103038    0.001295   -0.003932   -0.046232
O    -2.088788   -1.345964    0.057934    0.000145   -0.000373   -0.004663
O     0.457527    2.462975   -0.196369   -0.000393    0.001166    0.014193
H     2.408805   -1.587193    0.327609   -0.029418    0.094997    1.096508
H     0.135991   -2.139905    1.010165    0.038790    0.068077    0.013630
H    -1.651660    1.183501   -0.150630    0.000425   -0.002365   -0.025449
H     2.599533    0.897518   -0.192807    0.044948   -0.139835   -1.631268
H     0.171349   -2.296081   -0.614954   -0.039728   -0.064961    0.023036
13
* Frequency(22)  997.9881
C     1.627096    0.407908    0.063801   -0.006634    0.021521    0.251078
C     1.559138   -0.923676    0.088300    0.004097   -0.013256   -0.154630
N     0.247041   -1.590589    0.135775    0.000909   -0.003138   -0.036174
C    -1.075070   -0.736996    0.038531   -0.000568    0.001918    0.022575
N    -0.825126    0.582913   -0.073334   -0.000154    0.000045    0.000546
C     0.428283    1.271111   -0.107723    0.001295   -0.003932   -0.046232
O    -2.088773   -1.346002    0.057462    0.000145   -0.000373   -0.004663
O     0.457488    2.463093   -0.194931   -0.000393    0.001166    0.014193
H     2.405824   -1.577567    0.438718   -0.029418    0.094997    1.096508
H     0.139921   -2.133007    1.011546    0.038790    0.068077    0.013630
H    -1.651617    1.183261   -0.153209    0.000425   -0.002365   -0.025449
H     2.604088    0.883348   -0.358103    0.044948   -0.139835   -1.631268
H     0.167324   -2.302663   -0.612620   -0.039728   -0.064961    0.023036
13
* Frequency(22)  997.9881
C     1.626579    0.409587    0.083393   -0.006634    0.021521    0.251078
C     1.559458   -0.924710    0.076233    0.004097   -0.013256   -0.154630
N     0.247112   -1.590834    0.132952    0.000909   -0.003138   -0.036174
C    -1.075114   -0.736846    0.040292   -0.000568    0.001918    0.022575
N    -0.825138    0.582917   -0.073291   -0.000154    0.000045    0.000546
C     0.428384    1.270804   -0.111330    0.001295   -0.003932   -0.046232
O    -2.088762   -1.346031    0.057098    0.000145   -0.000373   -0.004663
O     0.457457    2.463184   -0.193823   -0.000393    0.001166    0.014193
H     2.403529   -1.570154    0.524282   -0.029418    0.094997    1.096508
H     0.142948   -2.127694    1.012609    0.038790    0.068077    0.013630
H    -1.651583    1.183077   -0.155195    0.000425   -0.002365   -0.025449
H     2.607595    0.872436   -0.485397    0.044948   -0.139835   -1.631268
H     0.164223   -2.307732   -0.610822   -0.039728   -0.064961    0.023036
13
* Frequency(22)  997.9881
C     1.626271    0.410583    0.095014   -0.006634    0.021521    0.251078
C     1.559647   -0.925324    0.069077    0.004097   -0.013256   -0.154630
N     0.247154   -1.590979    0.131278    0.000909   -0.003138   -0.036174
C    -1.075140   -0.736757    0.041337   -0.000568    0.001918    0.022575
N    -0.825145    0.582919   -0.073266   -0.000154    0.000045    0.000546
C     0.428444    1.270622   -0.113470    0.001295   -0.003932   -0.046232
O    -2.088755   -1.346048    0.056882    0.000145   -0.000373   -0.004663
O     0.457439    2.463238   -0.193167   -0.000393    0.001166    0.014193
H     2.402167   -1.565757    0.575031   -0.029418    0.094997    1.096508
H     0.144743   -2.124544    1.013240    0.038790    0.068077    0.013630
H    -1.651564    1.182967   -0.156373    0.000425   -0.002365   -0.025449
H     2.609675    0.865965   -0.560895    0.044948   -0.139835   -1.631268
H     0.162385   -2.310739   -0.609756   -0.039728   -0.064961    0.023036
13
* Frequency(22)  997.9881
C     1.626208    0.410788    0.097403   -0.006634    0.021521    0.251078
C     1.559686   -0.925450    0.067606    0.004097   -0.013256   -0.154630
N     0.247163   -1.591009    0.130934    0.000909   -0.003138   -0.036174
C    -1.075146   -0.736739    0.041552   -0.000568    0.001918    0.022575
N    -0.825147    0.582919   -0.073261   -0.000154    0.000045    0.000546
C     0.428456    1.270584   -0.113910    0.001295   -0.003932   -0.046232
O    -2.088754   -1.346052    0.056838    0.000145   -0.000373   -0.004663
O     0.457435    2.463249   -0.193031   -0.000393    0.001166    0.014193
H     2.401887   -1.564854    0.585464   -0.029418    0.094997    1.096508
H     0.145112   -2.123896    1.013370    0.038790    0.068077    0.013630
H    -1.651560    1.182945   -0.156615    0.000425   -0.002365   -0.025449
H     2.610103    0.864634   -0.576416    0.044948   -0.139835   -1.631268
H     0.162007   -2.311357   -0.609537   -0.039728   -0.064961    0.023036
13
* Frequency(22)  997.9881
C     1.626396    0.410179    0.090301   -0.006634    0.021521    0.251078
C     1.559570   -0.925075    0.071979    0.004097   -0.013256   -0.154630
N     0.247137   -1.590920    0.131957    0.000909   -0.003138   -0.036174
C    -1.075130   -0.736793    0.040913   -0.000568    0.001918    0.022575
N    -0.825142    0.582918   -0.073276   -0.000154    0.000045    0.000546
C     0.428420    1.270695   -0.112602    0.001295   -0.003932   -0.046232
O    -2.088758   -1.346041    0.056970    0.000145   -0.000373   -0.004663
O     0.457446    2.463216   -0.193433   -0.000393    0.001166    0.014193
H     2.402719   -1.567540    0.554450   -0.029418    0.094997    1.096508
H     0.144015   -2.125821    1.012984    0.038790    0.068077    0.013630
H    -1.651572    1.183011   -0.155895    0.000425   -0.002365   -0.025449
H     2.608832    0.868589   -0.530277    0.044948   -0.139835   -1.631268
H     0.163130   -2.309520   -0.610189   -0.039728   -0.064961    0.023036
13
* Frequency(22)  997.9881
C     1.626814    0.408823    0.074479   -0.006634    0.021521    0.251078
C     1.559312   -0.924239    0.081724    0.004097   -0.013256   -0.154630
N     0.247080   -1.590722    0.134236    0.000909   -0.003138   -0.036174
C    -1.075094   -0.736914    0.039491   -0.000568    0.001918    0.022575
N    -0.825132    0.582915   -0.073311   -0.000154    0.000045    0.000546
C     0.428338    1.270943   -0.109689    0.001295   -0.003932   -0.046232
O    -2.088767   -1.346018    0.057264    0.000145   -0.000373   -0.004663
O     0.457471    2.463143   -0.194327   -0.000393    0.001166    0.014193
H     2.404573   -1.573527    0.485351   -0.029418    0.094997    1.096508
H     0.141571   -2.130111    1.012125    0.038790    0.068077    0.013630
H    -1.651599    1.183160   -0.154291    0.000425   -0.002365   -0.025449
H     2.605999    0.877401   -0.427479    0.044948   -0.139835   -1.631268
H     0.165634   -2.305426   -0.611640   -0.039728   -0.064961    0.023036
13
* Frequency(22)  997.9881
C     1.627417    0.406867    0.051650   -0.006634    0.021521    0.251078
C     1.558940   -0.923034    0.095783    0.004097   -0.013256   -0.154630
N     0.246997   -1.590437    0.137525    0.000909   -0.003138   -0.036174
C    -1.075042   -0.737088    0.037438   -0.000568    0.001918    0.022575
N    -0.825118    0.582911   -0.073360   -0.000154    0.000045    0.000546
C     0.428221    1.271301   -0.105485    0.001295   -0.003932   -0.046232
O    -2.088780   -1.345984    0.057688    0.000145   -0.000373   -0.004663
O     0.457507    2.463037   -0.195618   -0.000393    0.001166    0.014193
H     2.407248   -1.582164    0.385655   -0.029418    0.094997    1.096508
H     0.138044   -2.136301    1.010886    0.038790    0.068077    0.013630
H    -1.651637    1.183376   -0.151977    0.000425   -0.002365   -0.025449
H     2.601912    0.890115   -0.279161    0.044948   -0.139835   -1.631268
H     0.169246   -2.299520   -0.613735   -0.039728   -0.064961    0.023036
13
* Frequency(22)  997.9881
C     1.628140    0.404521    0.024290   -0.006634    0.021521    0.251078
C     1.558493   -0.921589    0.112633    0.004097   -0.013256   -0.154630
N     0.246898   -1.590095    0.141467    0.000909   -0.003138   -0.036174
C    -1.074980   -0.737297    0.034978   -0.000568    0.001918    0.022575
N    -0.825102    0.582906   -0.073420   -0.000154    0.000045    0.000546
C     0.428080    1.271729   -0.100447    0.001295   -0.003932   -0.046232
O    -2.088796   -1.345943    0.058196    0.000145   -0.000373   -0.004663
O     0.457549    2.462910   -0.197165   -0.000393    0.001166    0.014193
H     2.410454   -1.592516    0.266164   -0.029418    0.094997    1.096508
H     0.133817   -2.143720    1.009401    0.038790    0.068077    0.013630
H    -1.651684    1.183633   -0.149204    0.000425   -0.002365   -0.025449
H     2.597014    0.905354   -0.101396    0.044948   -0.139835   -1.631268
H     0.173575   -2.292441   -0.616245   -0.039728   -0.064961    0.023036
13
* Frequency(22)  997.9881
C     1.628904    0.402042   -0.004639   -0.006634    0.021521    0.251078
C     1.558021   -0.920062    0.130449    0.004097   -0.013256   -0.154630
N     0.246793   -1.589734    0.145635    0.000909   -0.003138   -0.036174
C    -1.074915   -0.737518    0.032377   -0.000568    0.001918    0.022575
N    -0.825084    0.582901   -0.073482   -0.000154    0.000045    0.000546
C     0.427930    1.272182   -0.095121    0.001295   -0.003932   -0.046232
O    -2.088813   -1.345900    0.058733    0.000145   -0.000373   -0.004663
O     0.457595    2.462775   -0.198800   -0.000393    0.001166    0.014193
H     2.413843   -1.603461    0.139829   -0.029418    0.094997    1.096508
H     0.129348   -2.151563    1.007830    0.038790    0.068077    0.013630
H    -1.651733    1.183906   -0.146272    0.000425   -0.002365   -0.025449
H     2.591836    0.921465    0.086552    0.044948   -0.139835   -1.631268
H     0.178153   -2.284956   -0.618899   -0.039728   -0.064961    0.023036
13
* Frequency(22)  997.9881
C     1.629627    0.399697   -0.032000   -0.006634    0.021521    0.251078
C     1.557575   -0.918617    0.147300    0.004097   -0.013256   -0.154630
N     0.246694   -1.589392    0.149577    0.000909   -0.003138   -0.036174
C    -1.074853   -0.737727    0.029917   -0.000568    0.001918    0.022575
N    -0.825067    0.582896   -0.073542   -0.000154    0.000045    0.000546
C     0.427789    1.272611   -0.090083    0.001295   -0.003932   -0.046232
O    -2.088828   -1.345859    0.059241    0.000145   -0.000373   -0.004663
O     0.457638    2.462648   -0.200347   -0.000393    0.001166    0.014193
H     2.417049   -1.613814    0.020339   -0.029418    0.094997    1.096508
H     0.125121   -2.158982    1.006345    0.038790    0.068077    0.013630
H    -1.651779    1.184163   -0.143499    0.000425   -0.002365   -0.025449
H     2.586937    0.936703    0.264317    0.044948   -0.139835   -1.631268
H     0.182482   -2.277877   -0.621410   -0.039728   -0.064961    0.023036
13
* Frequency(22)  997.9881
C     1.630231    0.397740   -0.054828   -0.006634    0.021521    0.251078
C     1.557202   -0.917412    0.161359    0.004097   -0.013256   -0.154630
N     0.246612   -1.589107    0.152866    0.000909   -0.003138   -0.036174
C    -1.074801   -0.737902    0.027865   -0.000568    0.001918    0.022575
N    -0.825053    0.582892   -0.073592   -0.000154    0.000045    0.000546
C     0.427672    1.272968   -0.085879    0.001295   -0.003932   -0.046232
O    -2.088842   -1.345826    0.059665    0.000145   -0.000373   -0.004663
O     0.457673    2.462542   -0.201637   -0.000393    0.001166    0.014193
H     2.419724   -1.622451   -0.079358   -0.029418    0.094997    1.096508
H     0.121594   -2.165171    1.005106    0.038790    0.068077    0.013630
H    -1.651818    1.184378   -0.141185    0.000425   -0.002365   -0.025449
H     2.582851    0.949417    0.412635    0.044948   -0.139835   -1.631268
H     0.186094   -2.271971   -0.623504   -0.039728   -0.064961    0.023036
13
* Frequency(22)  997.9881
C     1.630649    0.396384   -0.070650   -0.006634    0.021521    0.251078
C     1.556944   -0.916577    0.171104    0.004097   -0.013256   -0.154630
N     0.246554   -1.588909    0.155145    0.000909   -0.003138   -0.036174
C    -1.074765   -0.738023    0.026442   -0.000568    0.001918    0.022575
N    -0.825044    0.582889   -0.073626   -0.000154    0.000045    0.000546
C     0.427590    1.273216   -0.082966    0.001295   -0.003932   -0.046232
O    -2.088851   -1.345802    0.059959    0.000145   -0.000373   -0.004663
O     0.457698    2.462469   -0.202532   -0.000393    0.001166    0.014193
H     2.421578   -1.628437   -0.148457   -0.029418    0.094997    1.096508
H     0.119149   -2.169461    1.004247    0.038790    0.068077    0.013630
H    -1.651844    1.184528   -0.139581    0.000425   -0.002365   -0.025449
H     2.580018    0.958229    0.515433    0.044948   -0.139835   -1.631268
H     0.188598   -2.267877   -0.624956   -0.039728   -0.064961    0.023036
13
* Frequency(22)  997.9881
C     1.630836    0.395775   -0.077752   -0.006634    0.021521    0.251078
C     1.556828   -0.916202    0.175477    0.004097   -0.013256   -0.154630
N     0.246529   -1.588820    0.156169    0.000909   -0.003138   -0.036174
C    -1.074749   -0.738077    0.025804   -0.000568    0.001918    0.022575
N    -0.825039    0.582888   -0.073641   -0.000154    0.000045    0.000546
C     0.427553    1.273327   -0.081658    0.001295   -0.003932   -0.046232
O    -2.088855   -1.345792    0.060091    0.000145   -0.000373   -0.004663
O     0.457709    2.462436   -0.202933   -0.000393    0.001166    0.014193
H     2.422410   -1.631124   -0.179470   -0.029418    0.094997    1.096508
H     0.118052   -2.171387    1.003861    0.038790    0.068077    0.013630
H    -1.651856    1.184594   -0.138861    0.000425   -0.002365   -0.025449
H     2.578747    0.962184    0.561572    0.044948   -0.139835   -1.631268
H     0.189721   -2.266040   -0.625607   -0.039728   -0.064961    0.023036
13
* Frequency(22)  997.9881
C     1.630773    0.395980   -0.075363   -0.006634    0.021521    0.251078
C     1.556867   -0.916328    0.174006    0.004097   -0.013256   -0.154630
N     0.246537   -1.588850    0.155824    0.000909   -0.003138   -0.036174
C    -1.074755   -0.738059    0.026018   -0.000568    0.001918    0.022575
N    -0.825041    0.582888   -0.073636   -0.000154    0.000045    0.000546
C     0.427566    1.273290   -0.082098    0.001295   -0.003932   -0.046232
O    -2.088853   -1.345795    0.060046    0.000145   -0.000373   -0.004663
O     0.457705    2.462447   -0.202798   -0.000393    0.001166    0.014193
H     2.422130   -1.630220   -0.169038   -0.029418    0.094997    1.096508
H     0.118421   -2.170739    1.003991    0.038790    0.068077    0.013630
H    -1.651852    1.184572   -0.139103    0.000425   -0.002365   -0.025449
H     2.579175    0.960854    0.546051    0.044948   -0.139835   -1.631268
H     0.189343   -2.266658   -0.625388   -0.039728   -0.064961    0.023036
13
* Frequency(22)  997.9881
C     1.630466    0.396976   -0.063743   -0.006634    0.021521    0.251078
C     1.557057   -0.916941    0.166849    0.004097   -0.013256   -0.154630
N     0.246579   -1.588995    0.154150    0.000909   -0.003138   -0.036174
C    -1.074781   -0.737970    0.027063   -0.000568    0.001918    0.022575
N    -0.825048    0.582890   -0.073611   -0.000154    0.000045    0.000546
C     0.427626    1.273108   -0.084238    0.001295   -0.003932   -0.046232
O    -2.088847   -1.345812    0.059830    0.000145   -0.000373   -0.004663
O     0.457687    2.462501   -0.202141   -0.000393    0.001166    0.014193
H     2.420768   -1.625824   -0.118289   -0.029418    0.094997    1.096508
H     0.120216   -2.167588    1.004622    0.038790    0.068077    0.013630
H    -1.651833    1.184462   -0.140281    0.000425   -0.002365   -0.025449
H     2.581255    0.954382    0.470553    0.044948   -0.139835   -1.631268
H     0.187505   -2.269664   -0.624322   -0.039728   -0.064961    0.023036
13
* Frequency(22)  997.9881
C     1.629948    0.398655   -0.044150   -0.006634    0.021521    0.251078
C     1.557376   -0.917976    0.154783    0.004097   -0.013256   -0.154630
N     0.246650   -1.589240    0.151327    0.000909   -0.003138   -0.036174
C    -1.074825   -0.737820    0.028825   -0.000568    0.001918    0.022575
N    -0.825060    0.582894   -0.073568   -0.000154    0.000045    0.000546
C     0.427727    1.272801   -0.087845    0.001295   -0.003932   -0.046232
O    -2.088835   -1.345841    0.059467    0.000145   -0.000373   -0.004663
O     0.457657    2.462592   -0.201033   -0.000393    0.001166    0.014193
H     2.418473   -1.618411   -0.032724   -0.029418    0.094997    1.096508
H     0.123243   -2.162276    1.005685    0.038790    0.068077    0.013630
H    -1.651799    1.184278   -0.142267    0.000425   -0.002365   -0.025449
H     2.584762    0.943470    0.343259    0.044948   -0.139835   -1.631268
H     0.184405   -2.274733   -0.622524   -0.039728   -0.064961    0.023036
13
* Frequency(22)  997.9881
C     1.629276    0.400836   -0.018708   -0.006634    0.021521    0.251078
C     1.557792   -0.919319    0.139114    0.004097   -0.013256   -0.154630
N     0.246742   -1.589558    0.147662    0.000909   -0.003138   -0.036174
C    -1.074883   -0.737626    0.031112   -0.000568    0.001918    0.022575
N    -0.825075    0.582898   -0.073513   -0.000154    0.000045    0.000546
C     0.427858    1.272403   -0.092530    0.001295   -0.003932   -0.046232
O    -2.088821   -1.345879    0.058994    0.000145   -0.000373   -0.004663
O     0.457617    2.462710   -0.199595   -0.000393    0.001166    0.014193
H     2.415492   -1.608785    0.078384   -0.029418    0.094997    1.096508
H     0.127174   -2.155378    1.007067    0.038790    0.068077    0.013630
H    -1.651756    1.184038   -0.144846    0.000425   -0.002365   -0.025449
H     2.589317    0.929301    0.177963    0.044948   -0.139835   -1.631268
H     0.180379   -2.281316   -0.620190   -0.039728   -0.064961    0.023036
13
* Frequency(22)  997.9881
C     1.628522    0.403282    0.009825   -0.006634    0.021521    0.251078
C     1.558257   -0.920826    0.121541    0.004097   -0.013256   -0.154630
N     0.246846   -1.589915    0.143551    0.000909   -0.003138   -0.036174
C    -1.074947   -0.737408    0.033678   -0.000568    0.001918    0.022575
N    -0.825093    0.582903   -0.073451   -0.000154    0.000045    0.000546
C     0.428005    1.271956   -0.097784    0.001295   -0.003932   -0.046232
O    -2.088804   -1.345922    0.058464    0.000145   -0.000373   -0.004663
O     0.457572    2.462843   -0.197982   -0.000393    0.001166    0.014193
H     2.412149   -1.597989    0.202997   -0.029418    0.094997    1.096508
H     0.131582   -2.147641    1.008616    0.038790    0.068077    0.013630
H    -1.651708    1.183769   -0.147738    0.000425   -0.002365   -0.025449
H     2.594425    0.913409   -0.007422    0.044948   -0.139835   -1.631268
H     0.175864   -2.288698   -0.617572   -0.039728   -0.064961    0.023036
