13
* (null), Energy   -1000.0000000
C     1.628522    0.403282    0.009825   -0.220186   -0.117710    0.004008
C     1.558257   -0.920826    0.121541    0.072304    0.009963    0.001335
N     0.246846   -1.589915    0.143551   -0.209533    0.079766   -0.012561
C    -1.074947   -0.737408    0.033678    0.287188   -0.400038    0.042246
N    -0.825093    0.582903   -0.073451   -0.301399    0.306636   -0.034702
C     0.428005    1.271956   -0.097784    0.679963   -0.013282    0.019936
O    -2.088804   -1.345922    0.058464   -0.120377    0.006848   -0.003905
O     0.457572    2.462843   -0.197982   -0.122924   -0.035180   -0.000428
H     2.412149   -1.597989    0.202997    0.374193    0.389049   -0.023781
H     0.131582   -2.147641    1.008616    0.815283   -0.186066   -0.029952
H    -1.651708    1.183769   -0.147738   -0.122947    0.577288   -0.053502
H     2.594425    0.913409   -0.007422   -0.673040    0.681881   -0.077073
H     0.175864   -2.288698   -0.617572    0.805876   -0.172977    0.105241
13
* Frequency(26) 1302.8159
C     1.603499    0.389904    0.010281   -0.220186   -0.117710    0.004008
C     1.566474   -0.919693    0.121693    0.072304    0.009963    0.001335
N     0.223033   -1.580850    0.142123   -0.209533    0.079766   -0.012561
C    -1.042310   -0.782870    0.038479    0.287188   -0.400038    0.042246
N    -0.859345    0.617751   -0.077395   -0.301399    0.306636   -0.034702
C     0.505279    1.270446   -0.095518    0.679963   -0.013282    0.019936
O    -2.102484   -1.345143    0.058020   -0.120377    0.006848   -0.003905
O     0.443602    2.458845   -0.198031   -0.122924   -0.035180   -0.000428
H     2.454674   -1.553775    0.200294    0.374193    0.389049   -0.023781
H     0.224235   -2.168787    1.005212    0.815283   -0.186066   -0.029952
H    -1.665680    1.249375   -0.153818   -0.122947    0.577288   -0.053502
H     2.517937    0.990901   -0.016181   -0.673040    0.681881   -0.077073
H     0.267448   -2.308356   -0.605612    0.805876   -0.172977    0.105241
13
* Frequency(26) 1302.8159
C     1.581188    0.377977    0.010687   -0.220186   -0.117710    0.004008
C     1.573801   -0.918684    0.121828    0.072304    0.009963    0.001335
N     0.201801   -1.572767    0.140851   -0.209533    0.079766   -0.012561
C    -1.013209   -0.823406    0.042760    0.287188   -0.400038    0.042246
N    -0.889886    0.648822   -0.080911   -0.301399    0.306636   -0.034702
C     0.574180    1.269101   -0.093498    0.679963   -0.013282    0.019936
O    -2.114682   -1.344449    0.057625   -0.120377    0.006848   -0.003905
O     0.431147    2.455280   -0.198074   -0.122924   -0.035180   -0.000428
H     2.492590   -1.514353    0.197884    0.374193    0.389049   -0.023781
H     0.306847   -2.187641    1.002177    0.815283   -0.186066   -0.029952
H    -1.678139    1.307872   -0.159240   -0.122947    0.577288   -0.053502
H     2.449739    1.059996   -0.023991   -0.673040    0.681881   -0.077073
H     0.349107   -2.325884   -0.594948    0.805876   -0.172977    0.105241
13
* Frequency(26) 1302.8159
C     1.564006    0.368791    0.011000   -0.220186   -0.117710    0.004008
C     1.579443   -0.917907    0.121933    0.072304    0.009963    0.001335
N     0.185451   -1.566542    0.139870   -0.209533    0.079766   -0.012561
C    -0.990799   -0.854622    0.046056    0.287188   -0.400038    0.042246
N    -0.913405    0.672750   -0.083619   -0.301399    0.306636   -0.034702
C     0.627240    1.268064   -0.091943    0.679963   -0.013282    0.019936
O    -2.124076   -1.343915    0.057320   -0.120377    0.006848   -0.003905
O     0.421554    2.452535   -0.198108   -0.122924   -0.035180   -0.000428
H     2.521790   -1.483994    0.196029    0.374193    0.389049   -0.023781
H     0.370467   -2.202160    0.999839    0.815283   -0.186066   -0.029952
H    -1.687733    1.352920   -0.163415   -0.122947    0.577288   -0.053502
H     2.397219    1.113206   -0.030005   -0.673040    0.681881   -0.077073
H     0.411992   -2.339382   -0.586736    0.805876   -0.172977    0.105241
13
* Frequency(26) 1302.8159
C     1.553815    0.363344    0.011185   -0.220186   -0.117710    0.004008
C     1.582789   -0.917445    0.121995    0.072304    0.009963    0.001335
N     0.175753   -1.562851    0.139289   -0.209533    0.079766   -0.012561
C    -0.977507   -0.873137    0.048012    0.287188   -0.400038    0.042246
N    -0.927355    0.686942   -0.085225   -0.301399    0.306636   -0.034702
C     0.658710    1.267449   -0.091020    0.679963   -0.013282    0.019936
O    -2.129647   -1.343598    0.057139   -0.120377    0.006848   -0.003905
O     0.415865    2.450906   -0.198128   -0.122924   -0.035180   -0.000428
H     2.539109   -1.465988    0.194928    0.374193    0.389049   -0.023781
H     0.408200   -2.210772    0.998453    0.815283   -0.186066   -0.029952
H    -1.693423    1.379638   -0.165891   -0.122947    0.577288   -0.053502
H     2.366069    1.144764   -0.033572   -0.673040    0.681881   -0.077073
H     0.449290   -2.347388   -0.581865    0.805876   -0.172977    0.105241
13
* Frequency(26) 1302.8159
C     1.551721    0.362224    0.011223   -0.220186   -0.117710    0.004008
C     1.583477   -0.917351    0.122007    0.072304    0.009963    0.001335
N     0.173759   -1.562092    0.139170   -0.209533    0.079766   -0.012561
C    -0.974775   -0.876943    0.048413    0.287188   -0.400038    0.042246
N    -0.930222    0.689859   -0.085555   -0.301399    0.306636   -0.034702
C     0.665179    1.267323   -0.090830    0.679963   -0.013282    0.019936
O    -2.130792   -1.343533    0.057102   -0.120377    0.006848   -0.003905
O     0.414696    2.450572   -0.198132   -0.122924   -0.035180   -0.000428
H     2.542669   -1.462287    0.194702    0.374193    0.389049   -0.023781
H     0.415957   -2.212542    0.998168    0.815283   -0.186066   -0.029952
H    -1.694593    1.385130   -0.166400   -0.122947    0.577288   -0.053502
H     2.359666    1.151252   -0.034306   -0.673040    0.681881   -0.077073
H     0.456957   -2.349034   -0.580864    0.805876   -0.172977    0.105241
13
* Frequency(26) 1302.8159
C     1.557948    0.365553    0.011110   -0.220186   -0.117710    0.004008
C     1.581432   -0.917632    0.121969    0.072304    0.009963    0.001335
N     0.179686   -1.564348    0.139525   -0.209533    0.079766   -0.012561
C    -0.982898   -0.865628    0.047219    0.287188   -0.400038    0.042246
N    -0.921697    0.681187   -0.084574   -0.301399    0.306636   -0.034702
C     0.645947    1.267699   -0.091394    0.679963   -0.013282    0.019936
O    -2.127387   -1.343727    0.057212   -0.120377    0.006848   -0.003905
O     0.418172    2.451567   -0.198120   -0.122924   -0.035180   -0.000428
H     2.532085   -1.473290    0.195374    0.374193    0.389049   -0.023781
H     0.392897   -2.207279    0.999015    0.815283   -0.186066   -0.029952
H    -1.691115    1.368802   -0.164886   -0.122947    0.577288   -0.053502
H     2.378702    1.131966   -0.032126   -0.673040    0.681881   -0.077073
H     0.434164   -2.344141   -0.583840    0.805876   -0.172977    0.105241
13
* Frequency(26) 1302.8159
C     1.571824    0.372971    0.010857   -0.220186   -0.117710    0.004008
C     1.576876   -0.918260    0.121885    0.072304    0.009963    0.001335
N     0.192890   -1.569374    0.140316   -0.209533    0.079766   -0.012561
C    -1.000995   -0.840419    0.044556    0.287188   -0.400038    0.042246
N    -0.902704    0.661863   -0.082387   -0.301399    0.306636   -0.034702
C     0.603098    1.268536   -0.092650    0.679963   -0.013282    0.019936
O    -2.119802   -1.344158    0.057459   -0.120377    0.006848   -0.003905
O     0.425919    2.453784   -0.198093   -0.122924   -0.035180   -0.000428
H     2.508504   -1.497807    0.196873    0.374193    0.389049   -0.023781
H     0.341520   -2.195554    1.000903    0.815283   -0.186066   -0.029952
H    -1.683367    1.332423   -0.161515   -0.122947    0.577288   -0.053502
H     2.421115    1.088996   -0.027269   -0.673040    0.681881   -0.077073
H     0.383380   -2.333241   -0.590472    0.805876   -0.172977    0.105241
13
* Frequency(26) 1302.8159
C     1.591843    0.383673    0.010493   -0.220186   -0.117710    0.004008
C     1.570302   -0.919166    0.121764    0.072304    0.009963    0.001335
N     0.211941   -1.576627    0.141459   -0.209533    0.079766   -0.012561
C    -1.027107   -0.804047    0.040715    0.287188   -0.400038    0.042246
N    -0.875300    0.633983   -0.079232   -0.301399    0.306636   -0.034702
C     0.541274    1.269743   -0.094463    0.679963   -0.013282    0.019936
O    -2.108857   -1.344781    0.057814   -0.120377    0.006848   -0.003905
O     0.437095    2.456982   -0.198054   -0.122924   -0.035180   -0.000428
H     2.474482   -1.533180    0.199035    0.374193    0.389049   -0.023781
H     0.267393   -2.178636    1.003626    0.815283   -0.186066   -0.029952
H    -1.672189    1.279935   -0.156650   -0.122947    0.577288   -0.053502
H     2.482309    1.026998   -0.020261   -0.673040    0.681881   -0.077073
H     0.310108   -2.317513   -0.600041    0.805876   -0.172977    0.105241
13
* Frequency(26) 1302.8159
C     1.615838    0.396501    0.010056   -0.220186   -0.117710    0.004008
C     1.562422   -0.920252    0.121618    0.072304    0.009963    0.001335
N     0.234775   -1.585319    0.142827   -0.209533    0.079766   -0.012561
C    -1.058403   -0.760453    0.036112    0.287188   -0.400038    0.042246
N    -0.842456    0.600568   -0.075450   -0.301399    0.306636   -0.034702
C     0.467176    1.271191   -0.096636    0.679963   -0.013282    0.019936
O    -2.095739   -1.345527    0.058239   -0.120377    0.006848   -0.003905
O     0.450491    2.460816   -0.198007   -0.122924   -0.035180   -0.000428
H     2.433705   -1.575576    0.201627    0.374193    0.389049   -0.023781
H     0.178549   -2.158360    1.006890    0.815283   -0.186066   -0.029952
H    -1.658791    1.217026   -0.150820   -0.122947    0.577288   -0.053502
H     2.555652    0.952691   -0.011862   -0.673040    0.681881   -0.077073
H     0.222289   -2.298663   -0.611509    0.805876   -0.172977    0.105241
13
* Frequency(26) 1302.8159
C     1.641207    0.410063    0.009594   -0.220186   -0.117710    0.004008
C     1.554092   -0.921400    0.121464    0.072304    0.009963    0.001335
N     0.258916   -1.594510    0.144275   -0.209533    0.079766   -0.012561
C    -1.091492   -0.714362    0.031244    0.287188   -0.400038    0.042246
N    -0.807730    0.565239   -0.071452   -0.301399    0.306636   -0.034702
C     0.388834    1.272721   -0.098933    0.679963   -0.013282    0.019936
O    -2.081870   -1.346316    0.058689   -0.120377    0.006848   -0.003905
O     0.464654    2.464869   -0.197958   -0.122924   -0.035180   -0.000428
H     2.390592   -1.620401    0.204367    0.374193    0.389049   -0.023781
H     0.084615   -2.136922    1.010341    0.815283   -0.186066   -0.029952
H    -1.644625    1.150513   -0.144656   -0.122947    0.577288   -0.053502
H     2.633197    0.874127   -0.002982   -0.673040    0.681881   -0.077073
H     0.129439   -2.278734   -0.623635    0.805876   -0.172977    0.105241
13
* Frequency(26) 1302.8159
C     1.665201    0.422890    0.009158   -0.220186   -0.117710    0.004008
C     1.546213   -0.922485    0.121319    0.072304    0.009963    0.001335
N     0.281750   -1.603202    0.145644   -0.209533    0.079766   -0.012561
C    -1.122788   -0.670769    0.026640    0.287188   -0.400038    0.042246
N    -0.774885    0.531824   -0.067670   -0.301399    0.306636   -0.034702
C     0.314736    1.274168   -0.101105    0.679963   -0.013282    0.019936
O    -2.068752   -1.347062    0.059115   -0.120377    0.006848   -0.003905
O     0.478049    2.468703   -0.197911   -0.122924   -0.035180   -0.000428
H     2.349815   -1.662797    0.206958    0.374193    0.389049   -0.023781
H    -0.004229   -2.116646    1.013605    0.815283   -0.186066   -0.029952
H    -1.631227    1.087604   -0.138826   -0.122947    0.577288   -0.053502
H     2.706541    0.799820    0.005417   -0.673040    0.681881   -0.077073
H     0.041620   -2.259884   -0.635103    0.805876   -0.172977    0.105241
13
* Frequency(26) 1302.8159
C     1.685221    0.433592    0.008793   -0.220186   -0.117710    0.004008
C     1.539639   -0.923391    0.121198    0.072304    0.009963    0.001335
N     0.300801   -1.610455    0.146786   -0.209533    0.079766   -0.012561
C    -1.148899   -0.634397    0.022799    0.287188   -0.400038    0.042246
N    -0.747482    0.503944   -0.064515   -0.301399    0.306636   -0.034702
C     0.252912    1.275376   -0.102918    0.679963   -0.013282    0.019936
O    -2.057807   -1.347685    0.059470   -0.120377    0.006848   -0.003905
O     0.489225    2.471902   -0.197872   -0.122924   -0.035180   -0.000428
H     2.315793   -1.698170    0.209120    0.374193    0.389049   -0.023781
H    -0.078356   -2.099729    1.016328    0.815283   -0.186066   -0.029952
H    -1.620049    1.035116   -0.133961   -0.122947    0.577288   -0.053502
H     2.767735    0.737823    0.012425   -0.673040    0.681881   -0.077073
H    -0.031652   -2.244156   -0.644672    0.805876   -0.172977    0.105241
13
* Frequency(26) 1302.8159
C     1.699096    0.441010    0.008541   -0.220186   -0.117710    0.004008
C     1.535082   -0.924019    0.121113    0.072304    0.009963    0.001335
N     0.314005   -1.615481    0.147577   -0.209533    0.079766   -0.012561
C    -1.166997   -0.609187    0.020137    0.287188   -0.400038    0.042246
N    -0.728488    0.484620   -0.062328   -0.301399    0.306636   -0.034702
C     0.210063    1.276213   -0.104174    0.679963   -0.013282    0.019936
O    -2.050221   -1.348117    0.059716   -0.120377    0.006848   -0.003905
O     0.496972    2.474119   -0.197845   -0.122924   -0.035180   -0.000428
H     2.292212   -1.722687    0.210619    0.374193    0.389049   -0.023781
H    -0.129733   -2.088004    1.018216    0.815283   -0.186066   -0.029952
H    -1.612301    0.998737   -0.130590   -0.122947    0.577288   -0.053502
H     2.810148    0.694852    0.017282   -0.673040    0.681881   -0.077073
H    -0.082436   -2.233256   -0.651304    0.805876   -0.172977    0.105241
13
* Frequency(26) 1302.8159
C     1.705324    0.444339    0.008427   -0.220186   -0.117710    0.004008
C     1.533037   -0.924301    0.121076    0.072304    0.009963    0.001335
N     0.319932   -1.617737    0.147933   -0.209533    0.079766   -0.012561
C    -1.175120   -0.597873    0.018942    0.287188   -0.400038    0.042246
N    -0.719963    0.475947   -0.061347   -0.301399    0.306636   -0.034702
C     0.190831    1.276589   -0.104738    0.679963   -0.013282    0.019936
O    -2.046816   -1.348310    0.059827   -0.120377    0.006848   -0.003905
O     0.500449    2.475114   -0.197833   -0.122924   -0.035180   -0.000428
H     2.281628   -1.733691    0.211292    0.374193    0.389049   -0.023781
H    -0.152792   -2.082741    1.019063    0.815283   -0.186066   -0.029952
H    -1.608823    0.982409   -0.129076   -0.122947    0.577288   -0.053502
H     2.829184    0.675566    0.019462   -0.673040    0.681881   -0.077073
H    -0.105229   -2.228363   -0.654281    0.805876   -0.172977    0.105241
13
* Frequency(26) 1302.8159
C     1.703229    0.443220    0.008466   -0.220186   -0.117710    0.004008
C     1.533725   -0.924206    0.121088    0.072304    0.009963    0.001335
N     0.317938   -1.616978    0.147813   -0.209533    0.079766   -0.012561
C    -1.172388   -0.601679    0.019344    0.287188   -0.400038    0.042246
N    -0.722831    0.478865   -0.061677   -0.301399    0.306636   -0.034702
C     0.197300    1.276462   -0.104548    0.679963   -0.013282    0.019936
O    -2.047962   -1.348245    0.059789   -0.120377    0.006848   -0.003905
O     0.499279    2.474779   -0.197837   -0.122924   -0.035180   -0.000428
H     2.285189   -1.729989    0.211065    0.374193    0.389049   -0.023781
H    -0.145035   -2.084511    1.018778    0.815283   -0.186066   -0.029952
H    -1.609993    0.987901   -0.129585   -0.122947    0.577288   -0.053502
H     2.822781    0.682054    0.018728   -0.673040    0.681881   -0.077073
H    -0.097562   -2.230009   -0.653279    0.805876   -0.172977    0.105241
13
* Frequency(26) 1302.8159
C     1.693039    0.437772    0.008651   -0.220186   -0.117710    0.004008
C     1.537072   -0.923745    0.121150    0.072304    0.009963    0.001335
N     0.308241   -1.613287    0.147232   -0.209533    0.079766   -0.012561
C    -1.159096   -0.620193    0.021299    0.287188   -0.400038    0.042246
N    -0.736780    0.493057   -0.063283   -0.301399    0.306636   -0.034702
C     0.228770    1.275848   -0.103626    0.679963   -0.013282    0.019936
O    -2.053533   -1.347928    0.059609   -0.120377    0.006848   -0.003905
O     0.493590    2.473151   -0.197857   -0.122924   -0.035180   -0.000428
H     2.302507   -1.711984    0.209965    0.374193    0.389049   -0.023781
H    -0.107302   -2.093123    1.017392    0.815283   -0.186066   -0.029952
H    -1.615683    1.014619   -0.132062   -0.122947    0.577288   -0.053502
H     2.791631    0.713613    0.015161   -0.673040    0.681881   -0.077073
H    -0.060264   -2.238015   -0.648409    0.805876   -0.172977    0.105241
13
* Frequency(26) 1302.8159
C     1.675857    0.428586    0.008964   -0.220186   -0.117710    0.004008
C     1.542714   -0.922967    0.121254    0.072304    0.009963    0.001335
N     0.291890   -1.607062    0.146251   -0.209533    0.079766   -0.012561
C    -1.136686   -0.651410    0.024596    0.287188   -0.400038    0.042246
N    -0.760300    0.516985   -0.065991   -0.301399    0.306636   -0.034702
C     0.281830    1.274811   -0.102070    0.679963   -0.013282    0.019936
O    -2.062926   -1.347394    0.059304   -0.120377    0.006848   -0.003905
O     0.483998    2.470405   -0.197890   -0.122924   -0.035180   -0.000428
H     2.331707   -1.681624    0.208109    0.374193    0.389049   -0.023781
H    -0.043683   -2.107642    1.015055    0.815283   -0.186066   -0.029952
H    -1.625277    1.059667   -0.136237   -0.122947    0.577288   -0.053502
H     2.739111    0.766822    0.009147   -0.673040    0.681881   -0.077073
H     0.002621   -2.251513   -0.640196    0.805876   -0.172977    0.105241
13
* Frequency(26) 1302.8159
C     1.653545    0.416659    0.009370   -0.220186   -0.117710    0.004008
C     1.550040   -0.921958    0.121390    0.072304    0.009963    0.001335
N     0.270658   -1.598980    0.144979   -0.209533    0.079766   -0.012561
C    -1.107585   -0.691946    0.028877    0.287188   -0.400038    0.042246
N    -0.790840    0.548056   -0.069507   -0.301399    0.306636   -0.034702
C     0.350731    1.273465   -0.100050    0.679963   -0.013282    0.019936
O    -2.075124   -1.346700    0.058908   -0.120377    0.006848   -0.003905
O     0.471542    2.466841   -0.197934   -0.122924   -0.035180   -0.000428
H     2.369623   -1.642202    0.205699    0.374193    0.389049   -0.023781
H     0.038930   -2.126496    1.012020    0.815283   -0.186066   -0.029952
H    -1.637736    1.118164   -0.141658   -0.122947    0.577288   -0.053502
H     2.670912    0.835917    0.001337   -0.673040    0.681881   -0.077073
H     0.084280   -2.269040   -0.629532    0.805876   -0.172977    0.105241
13
* Frequency(26) 1302.8159
C     1.628522    0.403282    0.009825   -0.220186   -0.117710    0.004008
C     1.558257   -0.920826    0.121541    0.072304    0.009963    0.001335
N     0.246846   -1.589915    0.143551   -0.209533    0.079766   -0.012561
C    -1.074947   -0.737408    0.033678    0.287188   -0.400038    0.042246
N    -0.825093    0.582903   -0.073451   -0.301399    0.306636   -0.034702
C     0.428005    1.271956   -0.097784    0.679963   -0.013282    0.019936
O    -2.088804   -1.345922    0.058464   -0.120377    0.006848   -0.003905
O     0.457572    2.462843   -0.197982   -0.122924   -0.035180   -0.000428
H     2.412149   -1.597989    0.202997    0.374193    0.389049   -0.023781
H     0.131582   -2.147641    1.008616    0.815283   -0.186066   -0.029952
H    -1.651708    1.183769   -0.147738   -0.122947    0.577288   -0.053502
H     2.594425    0.913409   -0.007422   -0.673040    0.681881   -0.077073
H     0.175864   -2.288698   -0.617572    0.805876   -0.172977    0.105241
