13
* (null), Energy   -1000.0000000
C     1.628522    0.403282    0.009825    0.010133   -0.015107    0.001556
C     1.558257   -0.920826    0.121541   -0.012585    0.032101   -0.003136
N     0.246846   -1.589915    0.143551   -0.016697   -0.072087    0.005779
C    -1.074947   -0.737408    0.033678    1.181584    1.055045   -0.058638
N    -0.825093    0.582903   -0.073451   -0.128900   -0.291732    0.021625
C     0.428005    1.271956   -0.097784   -0.035926   -0.123234    0.009498
O    -2.088804   -1.345922    0.058464   -0.802627   -0.491107    0.020375
O     0.457572    2.462843   -0.197982    0.015869    0.095202   -0.007650
H     2.412149   -1.597989    0.202997   -0.066543   -0.015488   -0.000445
H     0.131582   -2.147641    1.008616    0.302076   -0.137537    0.046764
H    -1.651708    1.183769   -0.147738    0.337804    0.348747   -0.020848
H     2.594425    0.913409   -0.007422    0.011300   -0.019862    0.002038
H     0.175864   -2.288698   -0.617572    0.303917   -0.142116   -0.005935
13
* Frequency(33) 1988.1816
C     1.629674    0.401565    0.010002    0.010133   -0.015107    0.001556
C     1.556827   -0.917178    0.121185   -0.012585    0.032101   -0.003136
N     0.244948   -1.598107    0.144208   -0.016697   -0.072087    0.005779
C    -0.940667   -0.617507    0.027014    1.181584    1.055045   -0.058638
N    -0.839742    0.549750   -0.070993   -0.128900   -0.291732    0.021625
C     0.423922    1.257951   -0.096705   -0.035926   -0.123234    0.009498
O    -2.180019   -1.401733    0.060780   -0.802627   -0.491107    0.020375
O     0.459376    2.473662   -0.198852    0.015869    0.095202   -0.007650
H     2.404586   -1.599749    0.202946   -0.066543   -0.015488   -0.000445
H     0.165912   -2.163272    1.013930    0.302076   -0.137537    0.046764
H    -1.613318    1.223403   -0.150107    0.337804    0.348747   -0.020848
H     2.595709    0.911152   -0.007190    0.011300   -0.019862    0.002038
H     0.210403   -2.304849   -0.618247    0.303917   -0.142116   -0.005935
13
* Frequency(33) 1988.1816
C     1.630701    0.400034    0.010160    0.010133   -0.015107    0.001556
C     1.555552   -0.913925    0.120867   -0.012585    0.032101   -0.003136
N     0.243256   -1.605411    0.144793   -0.016697   -0.072087    0.005779
C    -0.820937   -0.510600    0.021072    1.181584    1.055045   -0.058638
N    -0.852803    0.520188   -0.068802   -0.128900   -0.291732    0.021625
C     0.420282    1.245464   -0.095742   -0.035926   -0.123234    0.009498
O    -2.261348   -1.451497    0.062844   -0.802627   -0.491107    0.020375
O     0.460984    2.483309   -0.199627    0.015869    0.095202   -0.007650
H     2.397844   -1.601318    0.202901   -0.066543   -0.015488   -0.000445
H     0.196521   -2.177208    1.018669    0.302076   -0.137537    0.046764
H    -1.579089    1.258741   -0.152220    0.337804    0.348747   -0.020848
H     2.596854    0.909139   -0.006984    0.011300   -0.019862    0.002038
H     0.241198   -2.319250   -0.618848    0.303917   -0.142116   -0.005935
13
* Frequency(33) 1988.1816
C     1.631491    0.398855    0.010281    0.010133   -0.015107    0.001556
C     1.554570   -0.911420    0.120623   -0.012585    0.032101   -0.003136
N     0.241953   -1.611037    0.145244   -0.016697   -0.072087    0.005779
C    -0.728734   -0.428271    0.016496    1.181584    1.055045   -0.058638
N    -0.862862    0.497423   -0.067115   -0.128900   -0.291732    0.021625
C     0.417478    1.235847   -0.095001   -0.035926   -0.123234    0.009498
O    -2.323981   -1.489820    0.064434   -0.802627   -0.491107    0.020375
O     0.462222    2.490738   -0.200224    0.015869    0.095202   -0.007650
H     2.392651   -1.602527    0.202866   -0.066543   -0.015488   -0.000445
H     0.220093   -2.187941    1.022318    0.302076   -0.137537    0.046764
H    -1.552729    1.285955   -0.153847    0.337804    0.348747   -0.020848
H     2.597736    0.907589   -0.006825    0.011300   -0.019862    0.002038
H     0.264914   -2.330340   -0.619311    0.303917   -0.142116   -0.005935
13
* Frequency(33) 1988.1816
C     1.631960    0.398156    0.010353    0.010133   -0.015107    0.001556
C     1.553987   -0.909934    0.120477   -0.012585    0.032101   -0.003136
N     0.241180   -1.614373    0.145512   -0.016697   -0.072087    0.005779
C    -0.674048   -0.379441    0.013783    1.181584    1.055045   -0.058638
N    -0.868827    0.483922   -0.066114   -0.128900   -0.291732    0.021625
C     0.415816    1.230144   -0.094562   -0.035926   -0.123234    0.009498
O    -2.361128   -1.512549    0.065377   -0.802627   -0.491107    0.020375
O     0.462956    2.495144   -0.200578    0.015869    0.095202   -0.007650
H     2.389571   -1.603244    0.202846   -0.066543   -0.015488   -0.000445
H     0.234074   -2.194306    1.024482    0.302076   -0.137537    0.046764
H    -1.537094    1.302096   -0.154812    0.337804    0.348747   -0.020848
H     2.598259    0.906670   -0.006730    0.011300   -0.019862    0.002038
H     0.278980   -2.336917   -0.619586    0.303917   -0.142116   -0.005935
13
* Frequency(33) 1988.1816
C     1.632057    0.398012    0.010368    0.010133   -0.015107    0.001556
C     1.553868   -0.909629    0.120448   -0.012585    0.032101   -0.003136
N     0.241022   -1.615059    0.145567   -0.016697   -0.072087    0.005779
C    -0.662805   -0.369403    0.013225    1.181584    1.055045   -0.058638
N    -0.870054    0.481146   -0.065908   -0.128900   -0.291732    0.021625
C     0.415474    1.228971   -0.094471   -0.035926   -0.123234    0.009498
O    -2.368764   -1.517222    0.065571   -0.802627   -0.491107    0.020375
O     0.463107    2.496049   -0.200650    0.015869    0.095202   -0.007650
H     2.388938   -1.603391    0.202841   -0.066543   -0.015488   -0.000445
H     0.236948   -2.195615    1.024927    0.302076   -0.137537    0.046764
H    -1.533880    1.305414   -0.155010    0.337804    0.348747   -0.020848
H     2.598366    0.906481   -0.006711    0.011300   -0.019862    0.002038
H     0.281872   -2.338269   -0.619642    0.303917   -0.142116   -0.005935
13
* Frequency(33) 1988.1816
C     1.631770    0.398439    0.010324    0.010133   -0.015107    0.001556
C     1.554223   -0.910537    0.120536   -0.012585    0.032101   -0.003136
N     0.241494   -1.613020    0.145403   -0.016697   -0.072087    0.005779
C    -0.696225   -0.399244    0.014883    1.181584    1.055045   -0.058638
N    -0.866408    0.489397   -0.066520   -0.128900   -0.291732    0.021625
C     0.416490    1.232457   -0.094740   -0.035926   -0.123234    0.009498
O    -2.346063   -1.503332    0.064995   -0.802627   -0.491107    0.020375
O     0.462659    2.493357   -0.200434    0.015869    0.095202   -0.007650
H     2.390820   -1.602953    0.202854   -0.066543   -0.015488   -0.000445
H     0.228404   -2.191725    1.023605    0.302076   -0.137537    0.046764
H    -1.543435    1.295550   -0.154420    0.337804    0.348747   -0.020848
H     2.598047    0.907043   -0.006769    0.011300   -0.019862    0.002038
H     0.273276   -2.334250   -0.619475    0.303917   -0.142116   -0.005935
13
* Frequency(33) 1988.1816
C     1.631132    0.399391    0.010226    0.010133   -0.015107    0.001556
C     1.555017   -0.912560    0.120734   -0.012585    0.032101   -0.003136
N     0.242546   -1.608477    0.145039   -0.016697   -0.072087    0.005779
C    -0.770686   -0.465730    0.018578    1.181584    1.055045   -0.058638
N    -0.858285    0.507781   -0.067882   -0.128900   -0.291732    0.021625
C     0.418754    1.240223   -0.095338   -0.035926   -0.123234    0.009498
O    -2.295483   -1.472383    0.063711   -0.802627   -0.491107    0.020375
O     0.461659    2.487357   -0.199952    0.015869    0.095202   -0.007650
H     2.395014   -1.601977    0.202882   -0.066543   -0.015488   -0.000445
H     0.209368   -2.183058    1.020658    0.302076   -0.137537    0.046764
H    -1.564722    1.273573   -0.153107    0.337804    0.348747   -0.020848
H     2.597335    0.908295   -0.006897    0.011300   -0.019862    0.002038
H     0.254124   -2.325294   -0.619100    0.303917   -0.142116   -0.005935
13
* Frequency(33) 1988.1816
C     1.630210    0.400765    0.010085    0.010133   -0.015107    0.001556
C     1.556161   -0.915478    0.121019   -0.012585    0.032101   -0.003136
N     0.244064   -1.601923    0.144514   -0.016697   -0.072087    0.005779
C    -0.878117   -0.561657    0.023910    1.181584    1.055045   -0.058638
N    -0.846565    0.534306   -0.069849   -0.128900   -0.291732    0.021625
C     0.422020    1.251427   -0.096202   -0.035926   -0.123234    0.009498
O    -2.222507   -1.427731    0.061858   -0.802627   -0.491107    0.020375
O     0.460216    2.478701   -0.199257    0.015869    0.095202   -0.007650
H     2.401064   -1.600569    0.202923   -0.066543   -0.015488   -0.000445
H     0.181903   -2.170552    1.016406    0.302076   -0.137537    0.046764
H    -1.595436    1.241864   -0.151211    0.337804    0.348747   -0.020848
H     2.596307    0.910101   -0.007082    0.011300   -0.019862    0.002038
H     0.226491   -2.312372   -0.618561    0.303917   -0.142116   -0.005935
13
* Frequency(33) 1988.1816
C     1.629106    0.402411    0.009915    0.010133   -0.015107    0.001556
C     1.557532   -0.918976    0.121361   -0.012585    0.032101   -0.003136
N     0.245884   -1.594067    0.143884   -0.016697   -0.072087    0.005779
C    -1.006879   -0.676629    0.030300    1.181584    1.055045   -0.058638
N    -0.832519    0.566097   -0.072205   -0.128900   -0.291732    0.021625
C     0.425935    1.264857   -0.097237   -0.035926   -0.123234    0.009498
O    -2.135042   -1.374213    0.059638   -0.802627   -0.491107    0.020375
O     0.458486    2.468327   -0.198423    0.015869    0.095202   -0.007650
H     2.408315   -1.598881    0.202971   -0.066543   -0.015488   -0.000445
H     0.148984   -2.155565    1.011310    0.302076   -0.137537    0.046764
H    -1.632248    1.203860   -0.148939    0.337804    0.348747   -0.020848
H     2.595076    0.912265   -0.007305    0.011300   -0.019862    0.002038
H     0.193372   -2.296885   -0.617914    0.303917   -0.142116   -0.005935
13
* Frequency(33) 1988.1816
C     1.627939    0.404152    0.009736    0.010133   -0.015107    0.001556
C     1.558982   -0.922675    0.121722   -0.012585    0.032101   -0.003136
N     0.247807   -1.585762    0.143218   -0.016697   -0.072087    0.005779
C    -1.143016   -0.798187    0.037056    1.181584    1.055045   -0.058638
N    -0.817667    0.599710   -0.074697   -0.128900   -0.291732    0.021625
C     0.430075    1.279055   -0.098331   -0.035926   -0.123234    0.009498
O    -2.042566   -1.317630    0.057290   -0.802627   -0.491107    0.020375
O     0.456658    2.457358   -0.197542    0.015869    0.095202   -0.007650
H     2.415982   -1.597097    0.203022   -0.066543   -0.015488   -0.000445
H     0.114180   -2.139718    1.005922    0.302076   -0.137537    0.046764
H    -1.671168    1.163679   -0.146537    0.337804    0.348747   -0.020848
H     2.593774    0.914553   -0.007539    0.011300   -0.019862    0.002038
H     0.158356   -2.280511   -0.617230    0.303917   -0.142116   -0.005935
13
* Frequency(33) 1988.1816
C     1.626834    0.405798    0.009566    0.010133   -0.015107    0.001556
C     1.560354   -0.926173    0.122064   -0.012585    0.032101   -0.003136
N     0.249627   -1.577906    0.142588   -0.016697   -0.072087    0.005779
C    -1.271778   -0.913159    0.043446    1.181584    1.055045   -0.058638
N    -0.803620    0.631501   -0.077053   -0.128900   -0.291732    0.021625
C     0.433989    1.292484   -0.099366   -0.035926   -0.123234    0.009498
O    -1.955101   -1.264112    0.055070   -0.802627   -0.491107    0.020375
O     0.454929    2.446984   -0.196708    0.015869    0.095202   -0.007650
H     2.423233   -1.595409    0.203071   -0.066543   -0.015488   -0.000445
H     0.081262   -2.124730    1.000826    0.302076   -0.137537    0.046764
H    -1.707980    1.125675   -0.144265    0.337804    0.348747   -0.020848
H     2.592543    0.916718   -0.007762    0.011300   -0.019862    0.002038
H     0.125237   -2.265024   -0.616583    0.303917   -0.142116   -0.005935
13
* Frequency(33) 1988.1816
C     1.625913    0.407172    0.009425    0.010133   -0.015107    0.001556
C     1.561498   -0.929092    0.122349   -0.012585    0.032101   -0.003136
N     0.251145   -1.571352    0.142063   -0.016697   -0.072087    0.005779
C    -1.379209   -1.009086    0.048777    1.181584    1.055045   -0.058638
N    -0.791901    0.658025   -0.079020   -0.128900   -0.291732    0.021625
C     0.437256    1.303689   -0.100230   -0.035926   -0.123234    0.009498
O    -1.882125   -1.219460    0.053218   -0.802627   -0.491107    0.020375
O     0.453486    2.438328   -0.196012    0.015869    0.095202   -0.007650
H     2.429284   -1.594001    0.203111   -0.066543   -0.015488   -0.000445
H     0.053797   -2.112225    0.996574    0.302076   -0.137537    0.046764
H    -1.738694    1.093966   -0.142370    0.337804    0.348747   -0.020848
H     2.591515    0.918524   -0.007947    0.011300   -0.019862    0.002038
H     0.097605   -2.252103   -0.616044    0.303917   -0.142116   -0.005935
13
* Frequency(33) 1988.1816
C     1.625275    0.408124    0.009327    0.010133   -0.015107    0.001556
C     1.562291   -0.931115    0.122546   -0.012585    0.032101   -0.003136
N     0.252197   -1.566809    0.141699   -0.016697   -0.072087    0.005779
C    -1.453670   -1.075572    0.052473    1.181584    1.055045   -0.058638
N    -0.783778    0.676410   -0.080382   -0.128900   -0.291732    0.021625
C     0.439520    1.311455   -0.100828   -0.035926   -0.123234    0.009498
O    -1.831546   -1.188512    0.051934   -0.802627   -0.491107    0.020375
O     0.452486    2.432329   -0.195530    0.015869    0.095202   -0.007650
H     2.433477   -1.593025    0.203139   -0.066543   -0.015488   -0.000445
H     0.034761   -2.103558    0.993627    0.302076   -0.137537    0.046764
H    -1.759981    1.071989   -0.141056    0.337804    0.348747   -0.020848
H     2.590803    0.919775   -0.008075    0.011300   -0.019862    0.002038
H     0.078452   -2.243147   -0.615670    0.303917   -0.142116   -0.005935
13
* Frequency(33) 1988.1816
C     1.624988    0.408551    0.009283    0.010133   -0.015107    0.001556
C     1.562647   -0.932023    0.122635   -0.012585    0.032101   -0.003136
N     0.252670   -1.564770    0.141535   -0.016697   -0.072087    0.005779
C    -1.487089   -1.105413    0.054131    1.181584    1.055045   -0.058638
N    -0.780132    0.684661   -0.080994   -0.128900   -0.291732    0.021625
C     0.440536    1.314941   -0.101097   -0.035926   -0.123234    0.009498
O    -1.808844   -1.174621    0.051357   -0.802627   -0.491107    0.020375
O     0.452037    2.429636   -0.195314    0.015869    0.095202   -0.007650
H     2.435359   -1.592587    0.203152   -0.066543   -0.015488   -0.000445
H     0.026217   -2.099668    0.992304    0.302076   -0.137537    0.046764
H    -1.769536    1.062125   -0.140466    0.337804    0.348747   -0.020848
H     2.590483    0.920337   -0.008133    0.011300   -0.019862    0.002038
H     0.069857   -2.239128   -0.615502    0.303917   -0.142116   -0.005935
13
* Frequency(33) 1988.1816
C     1.625084    0.408407    0.009297    0.010133   -0.015107    0.001556
C     1.562527   -0.931717    0.122605   -0.012585    0.032101   -0.003136
N     0.252511   -1.565456    0.141590   -0.016697   -0.072087    0.005779
C    -1.475847   -1.095374    0.053573    1.181584    1.055045   -0.058638
N    -0.781358    0.681885   -0.080788   -0.128900   -0.291732    0.021625
C     0.440194    1.313768   -0.101007   -0.035926   -0.123234    0.009498
O    -1.816481   -1.179294    0.051551   -0.802627   -0.491107    0.020375
O     0.452188    2.430542   -0.195387    0.015869    0.095202   -0.007650
H     2.434726   -1.592734    0.203148   -0.066543   -0.015488   -0.000445
H     0.029091   -2.100977    0.992749    0.302076   -0.137537    0.046764
H    -1.766322    1.065443   -0.140664    0.337804    0.348747   -0.020848
H     2.590591    0.920148   -0.008114    0.011300   -0.019862    0.002038
H     0.072748   -2.240480   -0.615558    0.303917   -0.142116   -0.005935
13
* Frequency(33) 1988.1816
C     1.625553    0.407708    0.009369    0.010133   -0.015107    0.001556
C     1.561945   -0.930232    0.122460   -0.012585    0.032101   -0.003136
N     0.251738   -1.568793    0.141858   -0.016697   -0.072087    0.005779
C    -1.421161   -1.046545    0.050859    1.181584    1.055045   -0.058638
N    -0.787324    0.668383   -0.079787   -0.128900   -0.291732    0.021625
C     0.438531    1.308065   -0.100567   -0.035926   -0.123234    0.009498
O    -1.853628   -1.202023    0.052494   -0.802627   -0.491107    0.020375
O     0.452922    2.434948   -0.195741    0.015869    0.095202   -0.007650
H     2.431646   -1.593451    0.203127   -0.066543   -0.015488   -0.000445
H     0.043071   -2.107342    0.994913    0.302076   -0.137537    0.046764
H    -1.750687    1.081584   -0.141629    0.337804    0.348747   -0.020848
H     2.591114    0.919229   -0.008019    0.011300   -0.019862    0.002038
H     0.086814   -2.247057   -0.615833    0.303917   -0.142116   -0.005935
13
* Frequency(33) 1988.1816
C     1.626344    0.406529    0.009491    0.010133   -0.015107    0.001556
C     1.560963   -0.927727    0.122216   -0.012585    0.032101   -0.003136
N     0.250435   -1.574418    0.142309   -0.016697   -0.072087    0.005779
C    -1.328958   -0.964216    0.046283    1.181584    1.055045   -0.058638
N    -0.797383    0.645618   -0.078100   -0.128900   -0.291732    0.021625
C     0.435728    1.298448   -0.099826   -0.035926   -0.123234    0.009498
O    -1.916260   -1.240346    0.054084   -0.802627   -0.491107    0.020375
O     0.454161    2.442377   -0.196338    0.015869    0.095202   -0.007650
H     2.426454   -1.594659    0.203092   -0.066543   -0.015488   -0.000445
H     0.066644   -2.118074    0.998562    0.302076   -0.137537    0.046764
H    -1.724327    1.108798   -0.143256    0.337804    0.348747   -0.020848
H     2.591996    0.917679   -0.007860    0.011300   -0.019862    0.002038
H     0.110530   -2.258147   -0.616296    0.303917   -0.142116   -0.005935
13
* Frequency(33) 1988.1816
C     1.627371    0.404998    0.009649    0.010133   -0.015107    0.001556
C     1.559687   -0.924474    0.121898   -0.012585    0.032101   -0.003136
N     0.248743   -1.581722    0.142894   -0.016697   -0.072087    0.005779
C    -1.209228   -0.857308    0.040342    1.181584    1.055045   -0.058638
N    -0.810444    0.616057   -0.075909   -0.128900   -0.291732    0.021625
C     0.432088    1.285961   -0.098863   -0.035926   -0.123234    0.009498
O    -1.997590   -1.290110    0.056149   -0.802627   -0.491107    0.020375
O     0.455769    2.452023   -0.197113    0.015869    0.095202   -0.007650
H     2.419711   -1.596229    0.203047   -0.066543   -0.015488   -0.000445
H     0.097253   -2.132011    1.003301    0.302076   -0.137537    0.046764
H    -1.690098    1.144136   -0.145369    0.337804    0.348747   -0.020848
H     2.593141    0.915666   -0.007654    0.011300   -0.019862    0.002038
H     0.141326   -2.272548   -0.616898    0.303917   -0.142116   -0.005935
13
* Frequency(33) 1988.1816
C     1.628522    0.403282    0.009825    0.010133   -0.015107    0.001556
C     1.558257   -0.920826    0.121541   -0.012585    0.032101   -0.003136
N     0.246846   -1.589915    0.143551   -0.016697   -0.072087    0.005779
C    -1.074947   -0.737408    0.033678    1.181584    1.055045   -0.058638
N    -0.825093    0.582903   -0.073451   -0.128900   -0.291732    0.021625
C     0.428005    1.271956   -0.097784   -0.035926   -0.123234    0.009498
O    -2.088804   -1.345922    0.058464   -0.802627   -0.491107    0.020375
O     0.457572    2.462843   -0.197982    0.015869    0.095202   -0.007650
H     2.412149   -1.597989    0.202997   -0.066543   -0.015488   -0.000445
H     0.131582   -2.147641    1.008616    0.302076   -0.137537    0.046764
H    -1.651708    1.183769   -0.147738    0.337804    0.348747   -0.020848
H     2.594425    0.913409   -0.007422    0.011300   -0.019862    0.002038
H     0.175864   -2.288698   -0.617572    0.303917   -0.142116   -0.005935
