13
* (null), Energy   -1000.0000000
C     1.628522    0.403282    0.009825    0.000000    0.000000    0.000000
C     1.558257   -0.920826    0.121541    0.000000    0.000000    0.000000
N     0.246846   -1.589915    0.143551    0.000000    0.000000    0.000000
C    -1.074947   -0.737408    0.033678    0.000000    0.000000    0.000000
N    -0.825093    0.582903   -0.073451    0.000000    0.000000    0.000000
C     0.428005    1.271956   -0.097784    0.000000    0.000000    0.000000
O    -2.088804   -1.345922    0.058464    0.000000    0.000000    0.000000
O     0.457572    2.462843   -0.197982    0.000000    0.000000    0.000000
H     2.412149   -1.597989    0.202997    0.000000    0.000000    0.000000
H     0.131582   -2.147641    1.008616    0.000000    0.000000    0.000000
H    -1.651708    1.183769   -0.147738    0.000000    0.000000    0.000000
H     2.594425    0.913409   -0.007422    0.000000    0.000000    0.000000
H     0.175864   -2.288698   -0.617572    0.000000    0.000000    0.000000
13
* Frequency(4)    0.0000
C     1.628522    0.403282    0.009825    0.000000    0.000000    0.000000
C     1.558257   -0.920826    0.121541    0.000000    0.000000    0.000000
N     0.246846   -1.589915    0.143551    0.000000    0.000000    0.000000
C    -1.074947   -0.737408    0.033678    0.000000    0.000000    0.000000
N    -0.825093    0.582903   -0.073451    0.000000    0.000000    0.000000
C     0.428005    1.271956   -0.097784    0.000000    0.000000    0.000000
O    -2.088804   -1.345922    0.058464    0.000000    0.000000    0.000000
O     0.457572    2.462843   -0.197982    0.000000    0.000000    0.000000
H     2.412149   -1.597989    0.202997    0.000000    0.000000    0.000000
H     0.131582   -2.147641    1.008616    0.000000    0.000000    0.000000
H    -1.651708    1.183769   -0.147738    0.000000    0.000000    0.000000
H     2.594425    0.913409   -0.007422    0.000000    0.000000    0.000000
H     0.175864   -2.288698   -0.617572    0.000000    0.000000    0.000000
13
* Frequency(4)    0.0000
C     1.628522    0.403282    0.009825    0.000000    0.000000    0.000000
C     1.558257   -0.920826    0.121541    0.000000    0.000000    0.000000
N     0.246846   -1.589915    0.143551    0.000000    0.000000    0.000000
C    -1.074947   -0.737408    0.033678    0.000000    0.000000    0.000000
N    -0.825093    0.582903   -0.073451    0.000000    0.000000    0.000000
C     0.428005    1.271956   -0.097784    0.000000    0.000000    0.000000
O    -2.088804   -1.345922    0.058464    0.000000    0.000000    0.000000
O     0.457572    2.462843   -0.197982    0.000000    0.000000    0.000000
H     2.412149   -1.597989    0.202997    0.000000    0.000000    0.000000
H     0.131582   -2.147641    1.008616    0.000000    0.000000    0.000000
H    -1.651708    1.183769   -0.147738    0.000000    0.000000    0.000000
H     2.594425    0.913409   -0.007422    0.000000    0.000000    0.000000
H     0.175864   -2.288698   -0.617572    0.000000    0.000000    0.000000
13
* Frequency(4)    0.0000
C     1.628522    0.403282    0.009825    0.000000    0.000000    0.000000
C     1.558257   -0.920826    0.121541    0.000000    0.000000    0.000000
N     0.246846   -1.589915    0.143551    0.000000    0.000000    0.000000
C    -1.074947   -0.737408    0.033678    0.000000    0.000000    0.000000
N    -0.825093    0.582903   -0.073451    0.000000    0.000000    0.000000
C     0.428005    1.271956   -0.097784    0.000000    0.000000    0.000000
O    -2.088804   -1.345922    0.058464    0.000000    0.000000    0.000000
O     0.457572    2.462843   -0.197982    0.000000    0.000000    0.000000
H     2.412149   -1.597989    0.202997    0.000000    0.000000    0.000000
H     0.131582   -2.147641    1.008616    0.000000    0.000000    0.000000
H    -1.651708    1.183769   -0.147738    0.000000    0.000000    0.000000
H     2.594425    0.913409   -0.007422    0.000000    0.000000    0.000000
H     0.175864   -2.288698   -0.617572    0.000000    0.000000    0.000000
13
* Frequency(4)    0.0000
C     1.628522    0.403282    0.009825    0.000000    0.000000    0.000000
C     1.558257   -0.920826    0.121541    0.000000    0.000000    0.000000
N     0.246846   -1.589915    0.143551    0.000000    0.000000    0.000000
C    -1.074947   -0.737408    0.033678    0.000000    0.000000    0.000000
N    -0.825093    0.582903   -0.073451    0.000000    0.000000    0.000000
C     0.428005    1.271956   -0.097784    0.000000    0.000000    0.000000
O    -2.088804   -1.345922    0.058464    0.000000    0.000000    0.000000
O     0.457572    2.462843   -0.197982    0.000000    0.000000    0.000000
H     2.412149   -1.597989    0.202997    0.000000    0.000000    0.000000
H     0.131582   -2.147641    1.008616    0.000000    0.000000    0.000000
H    -1.651708    1.183769   -0.147738    0.000000    0.000000    0.000000
H     2.594425    0.913409   -0.007422    0.000000    0.000000    0.000000
H     0.175864   -2.288698   -0.617572    0.000000    0.000000    0.000000
13
* Frequency(4)    0.0000
C     1.628522    0.403282    0.009825    0.000000    0.000000    0.000000
C     1.558257   -0.920826    0.121541    0.000000    0.000000    0.000000
N     0.246846   -1.589915    0.143551    0.000000    0.000000    0.000000
C    -1.074947   -0.737408    0.033678    0.000000    0.000000    0.000000
N    -0.825093    0.582903   -0.073451    0.000000    0.000000    0.000000
C     0.428005    1.271956   -0.097784    0.000000    0.000000    0.000000
O    -2.088804   -1.345922    0.058464    0.000000    0.000000    0.000000
O     0.457572    2.462843   -0.197982    0.000000    0.000000    0.000000
H     2.412149   -1.597989    0.202997    0.000000    0.000000    0.000000
H     0.131582   -2.147641    1.008616    0.000000    0.000000    0.000000
H    -1.651708    1.183769   -0.147738    0.000000    0.000000    0.000000
H     2.594425    0.913409   -0.007422    0.000000    0.000000    0.000000
H     0.175864   -2.288698   -0.617572    0.000000    0.000000    0.000000
13
* Frequency(4)    0.0000
C     1.628522    0.403282    0.009825    0.000000    0.000000    0.000000
C     1.558257   -0.920826    0.121541    0.000000    0.000000    0.000000
N     0.246846   -1.589915    0.143551    0.000000    0.000000    0.000000
C    -1.074947   -0.737408    0.033678    0.000000    0.000000    0.000000
N    -0.825093    0.582903   -0.073451    0.000000    0.000000    0.000000
C     0.428005    1.271956   -0.097784    0.000000    0.000000    0.000000
O    -2.088804   -1.345922    0.058464    0.000000    0.000000    0.000000
O     0.457572    2.462843   -0.197982    0.000000    0.000000    0.000000
H     2.412149   -1.597989    0.202997    0.000000    0.000000    0.000000
H     0.131582   -2.147641    1.008616    0.000000    0.000000    0.000000
H    -1.651708    1.183769   -0.147738    0.000000    0.000000    0.000000
H     2.594425    0.913409   -0.007422    0.000000    0.000000    0.000000
H     0.175864   -2.288698   -0.617572    0.000000    0.000000    0.000000
13
* Frequency(4)    0.0000
C     1.628522    0.403282    0.009825    0.000000    0.000000    0.000000
C     1.558257   -0.920826    0.121541    0.000000    0.000000    0.000000
N     0.246846   -1.589915    0.143551    0.000000    0.000000    0.000000
C    -1.074947   -0.737408    0.033678    0.000000    0.000000    0.000000
N    -0.825093    0.582903   -0.073451    0.000000    0.000000    0.000000
C     0.428005    1.271956   -0.097784    0.000000    0.000000    0.000000
O    -2.088804   -1.345922    0.058464    0.000000    0.000000    0.000000
O     0.457572    2.462843   -0.197982    0.000000    0.000000    0.000000
H     2.412149   -1.597989    0.202997    0.000000    0.000000    0.000000
H     0.131582   -2.147641    1.008616    0.000000    0.000000    0.000000
H    -1.651708    1.183769   -0.147738    0.000000    0.000000    0.000000
H     2.594425    0.913409   -0.007422    0.000000    0.000000    0.000000
H     0.175864   -2.288698   -0.617572    0.000000    0.000000    0.000000
13
* Frequency(4)    0.0000
C     1.628522    0.403282    0.009825    0.000000    0.000000    0.000000
C     1.558257   -0.920826    0.121541    0.000000    0.000000    0.000000
N     0.246846   -1.589915    0.143551    0.000000    0.000000    0.000000
C    -1.074947   -0.737408    0.033678    0.000000    0.000000    0.000000
N    -0.825093    0.582903   -0.073451    0.000000    0.000000    0.000000
C     0.428005    1.271956   -0.097784    0.000000    0.000000    0.000000
O    -2.088804   -1.345922    0.058464    0.000000    0.000000    0.000000
O     0.457572    2.462843   -0.197982    0.000000    0.000000    0.000000
H     2.412149   -1.597989    0.202997    0.000000    0.000000    0.000000
H     0.131582   -2.147641    1.008616    0.000000    0.000000    0.000000
H    -1.651708    1.183769   -0.147738    0.000000    0.000000    0.000000
H     2.594425    0.913409   -0.007422    0.000000    0.000000    0.000000
H     0.175864   -2.288698   -0.617572    0.000000    0.000000    0.000000
13
* Frequency(4)    0.0000
C     1.628522    0.403282    0.009825    0.000000    0.000000    0.000000
C     1.558257   -0.920826    0.121541    0.000000    0.000000    0.000000
N     0.246846   -1.589915    0.143551    0.000000    0.000000    0.000000
C    -1.074947   -0.737408    0.033678    0.000000    0.000000    0.000000
N    -0.825093    0.582903   -0.073451    0.000000    0.000000    0.000000
C     0.428005    1.271956   -0.097784    0.000000    0.000000    0.000000
O    -2.088804   -1.345922    0.058464    0.000000    0.000000    0.000000
O     0.457572    2.462843   -0.197982    0.000000    0.000000    0.000000
H     2.412149   -1.597989    0.202997    0.000000    0.000000    0.000000
H     0.131582   -2.147641    1.008616    0.000000    0.000000    0.000000
H    -1.651708    1.183769   -0.147738    0.000000    0.000000    0.000000
H     2.594425    0.913409   -0.007422    0.000000    0.000000    0.000000
H     0.175864   -2.288698   -0.617572    0.000000    0.000000    0.000000
13
* Frequency(4)    0.0000
C     1.628522    0.403282    0.009825    0.000000    0.000000    0.000000
C     1.558257   -0.920826    0.121541    0.000000    0.000000    0.000000
N     0.246846   -1.589915    0.143551    0.000000    0.000000    0.000000
C    -1.074947   -0.737408    0.033678    0.000000    0.000000    0.000000
N    -0.825093    0.582903   -0.073451    0.000000    0.000000    0.000000
C     0.428005    1.271956   -0.097784    0.000000    0.000000    0.000000
O    -2.088804   -1.345922    0.058464    0.000000    0.000000    0.000000
O     0.457572    2.462843   -0.197982    0.000000    0.000000    0.000000
H     2.412149   -1.597989    0.202997    0.000000    0.000000    0.000000
H     0.131582   -2.147641    1.008616    0.000000    0.000000    0.000000
H    -1.651708    1.183769   -0.147738    0.000000    0.000000    0.000000
H     2.594425    0.913409   -0.007422    0.000000    0.000000    0.000000
H     0.175864   -2.288698   -0.617572    0.000000    0.000000    0.000000
13
* Frequency(4)    0.0000
C     1.628522    0.403282    0.009825    0.000000    0.000000    0.000000
C     1.558257   -0.920826    0.121541    0.000000    0.000000    0.000000
N     0.246846   -1.589915    0.143551    0.000000    0.000000    0.000000
C    -1.074947   -0.737408    0.033678    0.000000    0.000000    0.000000
N    -0.825093    0.582903   -0.073451    0.000000    0.000000    0.000000
C     0.428005    1.271956   -0.097784    0.000000    0.000000    0.000000
O    -2.088804   -1.345922    0.058464    0.000000    0.000000    0.000000
O     0.457572    2.462843   -0.197982    0.000000    0.000000    0.000000
H     2.412149   -1.597989    0.202997    0.000000    0.000000    0.000000
H     0.131582   -2.147641    1.008616    0.000000    0.000000    0.000000
H    -1.651708    1.183769   -0.147738    0.000000    0.000000    0.000000
H     2.594425    0.913409   -0.007422    0.000000    0.000000    0.000000
H     0.175864   -2.288698   -0.617572    0.000000    0.000000    0.000000
13
* Frequency(4)    0.0000
C     1.628522    0.403282    0.009825    0.000000    0.000000    0.000000
C     1.558257   -0.920826    0.121541    0.000000    0.000000    0.000000
N     0.246846   -1.589915    0.143551    0.000000    0.000000    0.000000
C    -1.074947   -0.737408    0.033678    0.000000    0.000000    0.000000
N    -0.825093    0.582903   -0.073451    0.000000    0.000000    0.000000
C     0.428005    1.271956   -0.097784    0.000000    0.000000    0.000000
O    -2.088804   -1.345922    0.058464    0.000000    0.000000    0.000000
O     0.457572    2.462843   -0.197982    0.000000    0.000000    0.000000
H     2.412149   -1.597989    0.202997    0.000000    0.000000    0.000000
H     0.131582   -2.147641    1.008616    0.000000    0.000000    0.000000
H    -1.651708    1.183769   -0.147738    0.000000    0.000000    0.000000
H     2.594425    0.913409   -0.007422    0.000000    0.000000    0.000000
H     0.175864   -2.288698   -0.617572    0.000000    0.000000    0.000000
13
* Frequency(4)    0.0000
C     1.628522    0.403282    0.009825    0.000000    0.000000    0.000000
C     1.558257   -0.920826    0.121541    0.000000    0.000000    0.000000
N     0.246846   -1.589915    0.143551    0.000000    0.000000    0.000000
C    -1.074947   -0.737408    0.033678    0.000000    0.000000    0.000000
N    -0.825093    0.582903   -0.073451    0.000000    0.000000    0.000000
C     0.428005    1.271956   -0.097784    0.000000    0.000000    0.000000
O    -2.088804   -1.345922    0.058464    0.000000    0.000000    0.000000
O     0.457572    2.462843   -0.197982    0.000000    0.000000    0.000000
H     2.412149   -1.597989    0.202997    0.000000    0.000000    0.000000
H     0.131582   -2.147641    1.008616    0.000000    0.000000    0.000000
H    -1.651708    1.183769   -0.147738    0.000000    0.000000    0.000000
H     2.594425    0.913409   -0.007422    0.000000    0.000000    0.000000
H     0.175864   -2.288698   -0.617572    0.000000    0.000000    0.000000
13
* Frequency(4)    0.0000
C     1.628522    0.403282    0.009825    0.000000    0.000000    0.000000
C     1.558257   -0.920826    0.121541    0.000000    0.000000    0.000000
N     0.246846   -1.589915    0.143551    0.000000    0.000000    0.000000
C    -1.074947   -0.737408    0.033678    0.000000    0.000000    0.000000
N    -0.825093    0.582903   -0.073451    0.000000    0.000000    0.000000
C     0.428005    1.271956   -0.097784    0.000000    0.000000    0.000000
O    -2.088804   -1.345922    0.058464    0.000000    0.000000    0.000000
O     0.457572    2.462843   -0.197982    0.000000    0.000000    0.000000
H     2.412149   -1.597989    0.202997    0.000000    0.000000    0.000000
H     0.131582   -2.147641    1.008616    0.000000    0.000000    0.000000
H    -1.651708    1.183769   -0.147738    0.000000    0.000000    0.000000
H     2.594425    0.913409   -0.007422    0.000000    0.000000    0.000000
H     0.175864   -2.288698   -0.617572    0.000000    0.000000    0.000000
13
* Frequency(4)    0.0000
C     1.628522    0.403282    0.009825    0.000000    0.000000    0.000000
C     1.558257   -0.920826    0.121541    0.000000    0.000000    0.000000
N     0.246846   -1.589915    0.143551    0.000000    0.000000    0.000000
C    -1.074947   -0.737408    0.033678    0.000000    0.000000    0.000000
N    -0.825093    0.582903   -0.073451    0.000000    0.000000    0.000000
C     0.428005    1.271956   -0.097784    0.000000    0.000000    0.000000
O    -2.088804   -1.345922    0.058464    0.000000    0.000000    0.000000
O     0.457572    2.462843   -0.197982    0.000000    0.000000    0.000000
H     2.412149   -1.597989    0.202997    0.000000    0.000000    0.000000
H     0.131582   -2.147641    1.008616    0.000000    0.000000    0.000000
H    -1.651708    1.183769   -0.147738    0.000000    0.000000    0.000000
H     2.594425    0.913409   -0.007422    0.000000    0.000000    0.000000
H     0.175864   -2.288698   -0.617572    0.000000    0.000000    0.000000
13
* Frequency(4)    0.0000
C     1.628522    0.403282    0.009825    0.000000    0.000000    0.000000
C     1.558257   -0.920826    0.121541    0.000000    0.000000    0.000000
N     0.246846   -1.589915    0.143551    0.000000    0.000000    0.000000
C    -1.074947   -0.737408    0.033678    0.000000    0.000000    0.000000
N    -0.825093    0.582903   -0.073451    0.000000    0.000000    0.000000
C     0.428005    1.271956   -0.097784    0.000000    0.000000    0.000000
O    -2.088804   -1.345922    0.058464    0.000000    0.000000    0.000000
O     0.457572    2.462843   -0.197982    0.000000    0.000000    0.000000
H     2.412149   -1.597989    0.202997    0.000000    0.000000    0.000000
H     0.131582   -2.147641    1.008616    0.000000    0.000000    0.000000
H    -1.651708    1.183769   -0.147738    0.000000    0.000000    0.000000
H     2.594425    0.913409   -0.007422    0.000000    0.000000    0.000000
H     0.175864   -2.288698   -0.617572    0.000000    0.000000    0.000000
13
* Frequency(4)    0.0000
C     1.628522    0.403282    0.009825    0.000000    0.000000    0.000000
C     1.558257   -0.920826    0.121541    0.000000    0.000000    0.000000
N     0.246846   -1.589915    0.143551    0.000000    0.000000    0.000000
C    -1.074947   -0.737408    0.033678    0.000000    0.000000    0.000000
N    -0.825093    0.582903   -0.073451    0.000000    0.000000    0.000000
C     0.428005    1.271956   -0.097784    0.000000    0.000000    0.000000
O    -2.088804   -1.345922    0.058464    0.000000    0.000000    0.000000
O     0.457572    2.462843   -0.197982    0.000000    0.000000    0.000000
H     2.412149   -1.597989    0.202997    0.000000    0.000000    0.000000
H     0.131582   -2.147641    1.008616    0.000000    0.000000    0.000000
H    -1.651708    1.183769   -0.147738    0.000000    0.000000    0.000000
H     2.594425    0.913409   -0.007422    0.000000    0.000000    0.000000
H     0.175864   -2.288698   -0.617572    0.000000    0.000000    0.000000
13
* Frequency(4)    0.0000
C     1.628522    0.403282    0.009825    0.000000    0.000000    0.000000
C     1.558257   -0.920826    0.121541    0.000000    0.000000    0.000000
N     0.246846   -1.589915    0.143551    0.000000    0.000000    0.000000
C    -1.074947   -0.737408    0.033678    0.000000    0.000000    0.000000
N    -0.825093    0.582903   -0.073451    0.000000    0.000000    0.000000
C     0.428005    1.271956   -0.097784    0.000000    0.000000    0.000000
O    -2.088804   -1.345922    0.058464    0.000000    0.000000    0.000000
O     0.457572    2.462843   -0.197982    0.000000    0.000000    0.000000
H     2.412149   -1.597989    0.202997    0.000000    0.000000    0.000000
H     0.131582   -2.147641    1.008616    0.000000    0.000000    0.000000
H    -1.651708    1.183769   -0.147738    0.000000    0.000000    0.000000
H     2.594425    0.913409   -0.007422    0.000000    0.000000    0.000000
H     0.175864   -2.288698   -0.617572    0.000000    0.000000    0.000000
13
* Frequency(4)    0.0000
C     1.628522    0.403282    0.009825    0.000000    0.000000    0.000000
C     1.558257   -0.920826    0.121541    0.000000    0.000000    0.000000
N     0.246846   -1.589915    0.143551    0.000000    0.000000    0.000000
C    -1.074947   -0.737408    0.033678    0.000000    0.000000    0.000000
N    -0.825093    0.582903   -0.073451    0.000000    0.000000    0.000000
C     0.428005    1.271956   -0.097784    0.000000    0.000000    0.000000
O    -2.088804   -1.345922    0.058464    0.000000    0.000000    0.000000
O     0.457572    2.462843   -0.197982    0.000000    0.000000    0.000000
H     2.412149   -1.597989    0.202997    0.000000    0.000000    0.000000
H     0.131582   -2.147641    1.008616    0.000000    0.000000    0.000000
H    -1.651708    1.183769   -0.147738    0.000000    0.000000    0.000000
H     2.594425    0.913409   -0.007422    0.000000    0.000000    0.000000
H     0.175864   -2.288698   -0.617572    0.000000    0.000000    0.000000
