13
* (null), Energy   -1000.0000000
C     1.628522    0.403282    0.009825   -0.000031    0.000033    0.000573
C     1.558257   -0.920826    0.121541    0.000060   -0.000156   -0.001794
N     0.246846   -1.589915    0.143551   -0.004311    0.014573    0.160975
C    -1.074947   -0.737408    0.033678    0.000007   -0.000089   -0.001055
N    -0.825093    0.582903   -0.073451   -0.000012    0.000026    0.000280
C     0.428005    1.271956   -0.097784    0.000007   -0.000016   -0.000259
O    -2.088804   -1.345922    0.058464    0.000003    0.000013    0.000100
O     0.457572    2.462843   -0.197982   -0.000000    0.000000    0.000038
H     2.412149   -1.597989    0.202997    0.000046   -0.000224   -0.002725
H     0.131582   -2.147641    1.008616    0.147122    0.755935   -1.172209
H    -1.651708    1.183769   -0.147738    0.000066    0.000046    0.001646
H     2.594425    0.913409   -0.007422    0.000046    0.000196    0.001868
H     0.175864   -2.288698   -0.617572   -0.087758   -0.956325   -1.041356
13
* Frequency(37) 3382.2451
C     1.628519    0.403285    0.009890   -0.000031    0.000033    0.000573
C     1.558264   -0.920843    0.121338    0.000060   -0.000156   -0.001794
N     0.246356   -1.588258    0.161845   -0.004311    0.014573    0.160975
C    -1.074947   -0.737418    0.033558    0.000007   -0.000089   -0.001055
N    -0.825094    0.582906   -0.073419   -0.000012    0.000026    0.000280
C     0.428006    1.271954   -0.097813    0.000007   -0.000016   -0.000259
O    -2.088804   -1.345920    0.058476    0.000003    0.000013    0.000100
O     0.457572    2.462843   -0.197978   -0.000000    0.000000    0.000038
H     2.412154   -1.598014    0.202687    0.000046   -0.000224   -0.002725
H     0.148302   -2.061733    0.875400    0.147122    0.755935   -1.172209
H    -1.651700    1.183775   -0.147551    0.000066    0.000046    0.001646
H     2.594430    0.913431   -0.007210    0.000046    0.000196    0.001868
H     0.165891   -2.397380   -0.735917   -0.087758   -0.956325   -1.041356
13
* Frequency(37) 3382.2451
C     1.628516    0.403289    0.009949   -0.000031    0.000033    0.000573
C     1.558270   -0.920859    0.121156    0.000060   -0.000156   -0.001794
N     0.245919   -1.586782    0.178157   -0.004311    0.014573    0.160975
C    -1.074946   -0.737427    0.033451    0.000007   -0.000089   -0.001055
N    -0.825096    0.582909   -0.073391   -0.000012    0.000026    0.000280
C     0.428006    1.271953   -0.097840    0.000007   -0.000016   -0.000259
O    -2.088804   -1.345919    0.058486    0.000003    0.000013    0.000100
O     0.457572    2.462843   -0.197974   -0.000000    0.000000    0.000038
H     2.412158   -1.598037    0.202411    0.000046   -0.000224   -0.002725
H     0.163210   -1.985135    0.756621    0.147122    0.755935   -1.172209
H    -1.651694    1.183779   -0.147384    0.000066    0.000046    0.001646
H     2.594435    0.913451   -0.007021    0.000046    0.000196    0.001868
H     0.156998   -2.494284   -0.841437   -0.087758   -0.956325   -1.041356
13
* Frequency(37) 3382.2451
C     1.628513    0.403291    0.009993   -0.000031    0.000033    0.000573
C     1.558275   -0.920871    0.121016    0.000060   -0.000156   -0.001794
N     0.245583   -1.585644    0.190718   -0.004311    0.014573    0.160975
C    -1.074946   -0.737434    0.033369    0.000007   -0.000089   -0.001055
N    -0.825096    0.582911   -0.073369   -0.000012    0.000026    0.000280
C     0.428007    1.271951   -0.097860    0.000007   -0.000016   -0.000259
O    -2.088803   -1.345918    0.058494    0.000003    0.000013    0.000100
O     0.457572    2.462843   -0.197971   -0.000000    0.000000    0.000038
H     2.412162   -1.598054    0.202198    0.000046   -0.000224   -0.002725
H     0.174690   -1.926146    0.665149    0.147122    0.755935   -1.172209
H    -1.651689    1.183783   -0.147256    0.000066    0.000046    0.001646
H     2.594438    0.913467   -0.006875    0.000046    0.000196    0.001868
H     0.150150   -2.568909   -0.922698   -0.087758   -0.956325   -1.041356
13
* Frequency(37) 3382.2451
C     1.628512    0.403293    0.010020   -0.000031    0.000033    0.000573
C     1.558277   -0.920879    0.120933    0.000060   -0.000156   -0.001794
N     0.245383   -1.584970    0.198168   -0.004311    0.014573    0.160975
C    -1.074945   -0.737438    0.033320    0.000007   -0.000089   -0.001055
N    -0.825097    0.582912   -0.073356   -0.000012    0.000026    0.000280
C     0.428007    1.271951   -0.097872    0.000007   -0.000016   -0.000259
O    -2.088803   -1.345917    0.058498    0.000003    0.000013    0.000100
O     0.457572    2.462843   -0.197969   -0.000000    0.000000    0.000038
H     2.412164   -1.598065    0.202072    0.000046   -0.000224   -0.002725
H     0.181499   -1.891160    0.610897    0.147122    0.755935   -1.172209
H    -1.651685    1.183785   -0.147180    0.000066    0.000046    0.001646
H     2.594440    0.913476   -0.006788    0.000046    0.000196    0.001868
H     0.146089   -2.613170   -0.970894   -0.087758   -0.956325   -1.041356
13
* Frequency(37) 3382.2451
C     1.628511    0.403293    0.010025   -0.000031    0.000033    0.000573
C     1.558278   -0.920880    0.120916    0.000060   -0.000156   -0.001794
N     0.245342   -1.584831    0.199700   -0.004311    0.014573    0.160975
C    -1.074945   -0.737439    0.033310    0.000007   -0.000089   -0.001055
N    -0.825097    0.582913   -0.073353   -0.000012    0.000026    0.000280
C     0.428007    1.271950   -0.097874    0.000007   -0.000016   -0.000259
O    -2.088803   -1.345917    0.058499    0.000003    0.000013    0.000100
O     0.457572    2.462843   -0.197969   -0.000000    0.000000    0.000038
H     2.412165   -1.598067    0.202046    0.000046   -0.000224   -0.002725
H     0.182899   -1.883968    0.599744    0.147122    0.755935   -1.172209
H    -1.651685    1.183786   -0.147164    0.000066    0.000046    0.001646
H     2.594441    0.913477   -0.006771    0.000046    0.000196    0.001868
H     0.145254   -2.622269   -0.980802   -0.087758   -0.956325   -1.041356
13
* Frequency(37) 3382.2451
C     1.628512    0.403292    0.010009   -0.000031    0.000033    0.000573
C     1.558276   -0.920876    0.120966    0.000060   -0.000156   -0.001794
N     0.245464   -1.585243    0.195147   -0.004311    0.014573    0.160975
C    -1.074945   -0.737436    0.033340    0.000007   -0.000089   -0.001055
N    -0.825097    0.582912   -0.073361   -0.000012    0.000026    0.000280
C     0.428007    1.271951   -0.097867    0.000007   -0.000016   -0.000259
O    -2.088803   -1.345918    0.058496    0.000003    0.000013    0.000100
O     0.457572    2.462843   -0.197970   -0.000000    0.000000    0.000038
H     2.412163   -1.598061    0.202123    0.000046   -0.000224   -0.002725
H     0.178738   -1.905349    0.632898    0.147122    0.755935   -1.172209
H    -1.651687    1.183784   -0.147211    0.000066    0.000046    0.001646
H     2.594440    0.913472   -0.006823    0.000046    0.000196    0.001868
H     0.147736   -2.595220   -0.951348   -0.087758   -0.956325   -1.041356
13
* Frequency(37) 3382.2451
C     1.628514    0.403290    0.009973   -0.000031    0.000033    0.000573
C     1.558273   -0.920866    0.121079    0.000060   -0.000156   -0.001794
N     0.245736   -1.586162    0.185003   -0.004311    0.014573    0.160975
C    -1.074946   -0.737431    0.033406    0.000007   -0.000089   -0.001055
N    -0.825096    0.582910   -0.073379   -0.000012    0.000026    0.000280
C     0.428007    1.271952   -0.097851    0.000007   -0.000016   -0.000259
O    -2.088803   -1.345918    0.058490    0.000003    0.000013    0.000100
O     0.457572    2.462843   -0.197972   -0.000000    0.000000    0.000038
H     2.412160   -1.598046    0.202295    0.000046   -0.000224   -0.002725
H     0.169467   -1.952986    0.706768    0.147122    0.755935   -1.172209
H    -1.651691    1.183781   -0.147314    0.000066    0.000046    0.001646
H     2.594437    0.913460   -0.006941    0.000046    0.000196    0.001868
H     0.153266   -2.534955   -0.885725   -0.087758   -0.956325   -1.041356
13
* Frequency(37) 3382.2451
C     1.628517    0.403287    0.009921   -0.000031    0.000033    0.000573
C     1.558267   -0.920852    0.121243    0.000060   -0.000156   -0.001794
N     0.246128   -1.587487    0.170367   -0.004311    0.014573    0.160975
C    -1.074946   -0.737423    0.033502    0.000007   -0.000089   -0.001055
N    -0.825095    0.582908   -0.073404   -0.000012    0.000026    0.000280
C     0.428006    1.271953   -0.097827    0.000007   -0.000016   -0.000259
O    -2.088804   -1.345919    0.058481    0.000003    0.000013    0.000100
O     0.457572    2.462843   -0.197976   -0.000000    0.000000    0.000038
H     2.412156   -1.598026    0.202543    0.000046   -0.000224   -0.002725
H     0.156090   -2.021717    0.813347    0.147122    0.755935   -1.172209
H    -1.651697    1.183777   -0.147464    0.000066    0.000046    0.001646
H     2.594432    0.913442   -0.007111    0.000046    0.000196    0.001868
H     0.161245   -2.448004   -0.791043   -0.087758   -0.956325   -1.041356
13
* Frequency(37) 3382.2451
C     1.628520    0.403283    0.009858   -0.000031    0.000033    0.000573
C     1.558261   -0.920835    0.121438    0.000060   -0.000156   -0.001794
N     0.246597   -1.589075    0.152824   -0.004311    0.014573    0.160975
C    -1.074947   -0.737413    0.033617    0.000007   -0.000089   -0.001055
N    -0.825094    0.582905   -0.073435   -0.000012    0.000026    0.000280
C     0.428005    1.271955   -0.097799    0.000007   -0.000016   -0.000259
O    -2.088804   -1.345921    0.058470    0.000003    0.000013    0.000100
O     0.457572    2.462843   -0.197980   -0.000000    0.000000    0.000038
H     2.412151   -1.598002    0.202840    0.000046   -0.000224   -0.002725
H     0.140058   -2.104093    0.941087    0.147122    0.755935   -1.172209
H    -1.651704    1.183772   -0.147643    0.000066    0.000046    0.001646
H     2.594428    0.913420   -0.007314    0.000046    0.000196    0.001868
H     0.170808   -2.343790   -0.677563   -0.087758   -0.956325   -1.041356
13
* Frequency(37) 3382.2451
C     1.628524    0.403280    0.009792   -0.000031    0.000033    0.000573
C     1.558254   -0.920817    0.121645    0.000060   -0.000156   -0.001794
N     0.247094   -1.590754    0.134278   -0.004311    0.014573    0.160975
C    -1.074948   -0.737403    0.033739    0.000007   -0.000089   -0.001055
N    -0.825092    0.582902   -0.073467   -0.000012    0.000026    0.000280
C     0.428005    1.271957   -0.097769    0.000007   -0.000016   -0.000259
O    -2.088804   -1.345922    0.058458    0.000003    0.000013    0.000100
O     0.457572    2.462843   -0.197984   -0.000000    0.000000    0.000038
H     2.412146   -1.597976    0.203154    0.000046   -0.000224   -0.002725
H     0.123107   -2.191189    1.076144    0.147122    0.755935   -1.172209
H    -1.651712    1.183767   -0.147833    0.000066    0.000046    0.001646
H     2.594422    0.913398   -0.007530    0.000046    0.000196    0.001868
H     0.180920   -2.233606   -0.557582   -0.087758   -0.956325   -1.041356
13
* Frequency(37) 3382.2451
C     1.628528    0.403276    0.009730   -0.000031    0.000033    0.000573
C     1.558247   -0.920800    0.121840    0.000060   -0.000156   -0.001794
N     0.247564   -1.592342    0.116736   -0.004311    0.014573    0.160975
C    -1.074949   -0.737393    0.033854    0.000007   -0.000089   -0.001055
N    -0.825091    0.582899   -0.073498   -0.000012    0.000026    0.000280
C     0.428004    1.271958   -0.097741    0.000007   -0.000016   -0.000259
O    -2.088805   -1.345924    0.058448    0.000003    0.000013    0.000100
O     0.457572    2.462843   -0.197989   -0.000000    0.000000    0.000038
H     2.412141   -1.597952    0.203451    0.000046   -0.000224   -0.002725
H     0.107075   -2.273566    1.203884    0.147122    0.755935   -1.172209
H    -1.651719    1.183762   -0.148012    0.000066    0.000046    0.001646
H     2.594417    0.913377   -0.007733    0.000046    0.000196    0.001868
H     0.190483   -2.129392   -0.444101   -0.087758   -0.956325   -1.041356
13
* Frequency(37) 3382.2451
C     1.628530    0.403273    0.009678   -0.000031    0.000033    0.000573
C     1.558242   -0.920786    0.122003    0.000060   -0.000156   -0.001794
N     0.247956   -1.593667    0.102099   -0.004311    0.014573    0.160975
C    -1.074949   -0.737385    0.033949    0.000007   -0.000089   -0.001055
N    -0.825090    0.582897   -0.073523   -0.000012    0.000026    0.000280
C     0.428003    1.271960   -0.097717    0.000007   -0.000016   -0.000259
O    -2.088805   -1.345925    0.058438    0.000003    0.000013    0.000100
O     0.457572    2.462843   -0.197992   -0.000000    0.000000    0.000038
H     2.412137   -1.597931    0.203698    0.000046   -0.000224   -0.002725
H     0.093698   -2.342297    1.310463    0.147122    0.755935   -1.172209
H    -1.651725    1.183758   -0.148162    0.000066    0.000046    0.001646
H     2.594413    0.913359   -0.007903    0.000046    0.000196    0.001868
H     0.198462   -2.042442   -0.349419   -0.087758   -0.956325   -1.041356
13
* Frequency(37) 3382.2451
C     1.628532    0.403271    0.009642   -0.000031    0.000033    0.000573
C     1.558238   -0.920776    0.122116    0.000060   -0.000156   -0.001794
N     0.248227   -1.594586    0.091955   -0.004311    0.014573    0.160975
C    -1.074950   -0.737379    0.034016    0.000007   -0.000089   -0.001055
N    -0.825089    0.582895   -0.073541   -0.000012    0.000026    0.000280
C     0.428003    1.271961   -0.097701    0.000007   -0.000016   -0.000259
O    -2.088805   -1.345926    0.058432    0.000003    0.000013    0.000100
O     0.457572    2.462843   -0.197995   -0.000000    0.000000    0.000038
H     2.412134   -1.597917    0.203870    0.000046   -0.000224   -0.002725
H     0.084427   -2.389934    1.384333    0.147122    0.755935   -1.172209
H    -1.651729    1.183755   -0.148266    0.000066    0.000046    0.001646
H     2.594410    0.913346   -0.008021    0.000046    0.000196    0.001868
H     0.203992   -1.982177   -0.283796   -0.087758   -0.956325   -1.041356
13
* Frequency(37) 3382.2451
C     1.628533    0.403270    0.009626   -0.000031    0.000033    0.000573
C     1.558236   -0.920771    0.122167    0.000060   -0.000156   -0.001794
N     0.248349   -1.594998    0.087402   -0.004311    0.014573    0.160975
C    -1.074950   -0.737377    0.034046    0.000007   -0.000089   -0.001055
N    -0.825089    0.582894   -0.073549   -0.000012    0.000026    0.000280
C     0.428002    1.271961   -0.097694    0.000007   -0.000016   -0.000259
O    -2.088805   -1.345926    0.058429    0.000003    0.000013    0.000100
O     0.457572    2.462842   -0.197996   -0.000000    0.000000    0.000038
H     2.412133   -1.597911    0.203947    0.000046   -0.000224   -0.002725
H     0.080266   -2.411315    1.417487    0.147122    0.755935   -1.172209
H    -1.651731    1.183753   -0.148312    0.000066    0.000046    0.001646
H     2.594409    0.913341   -0.008074    0.000046    0.000196    0.001868
H     0.206474   -1.955128   -0.254342   -0.087758   -0.956325   -1.041356
13
* Frequency(37) 3382.2451
C     1.628533    0.403270    0.009631   -0.000031    0.000033    0.000573
C     1.558237   -0.920773    0.122150    0.000060   -0.000156   -0.001794
N     0.248308   -1.594859    0.088934   -0.004311    0.014573    0.160975
C    -1.074950   -0.737378    0.034036    0.000007   -0.000089   -0.001055
N    -0.825089    0.582895   -0.073546   -0.000012    0.000026    0.000280
C     0.428002    1.271961   -0.097696    0.000007   -0.000016   -0.000259
O    -2.088805   -1.345926    0.058430    0.000003    0.000013    0.000100
O     0.457572    2.462842   -0.197995   -0.000000    0.000000    0.000038
H     2.412133   -1.597913    0.203921    0.000046   -0.000224   -0.002725
H     0.081665   -2.404123    1.406334    0.147122    0.755935   -1.172209
H    -1.651731    1.183754   -0.148297    0.000066    0.000046    0.001646
H     2.594409    0.913343   -0.008056    0.000046    0.000196    0.001868
H     0.205640   -1.964227   -0.264250   -0.087758   -0.956325   -1.041356
13
* Frequency(37) 3382.2451
C     1.628531    0.403272    0.009657   -0.000031    0.000033    0.000573
C     1.558240   -0.920780    0.122067    0.000060   -0.000156   -0.001794
N     0.248109   -1.594185    0.096384   -0.004311    0.014573    0.160975
C    -1.074949   -0.737382    0.033987    0.000007   -0.000089   -0.001055
N    -0.825089    0.582896   -0.073533   -0.000012    0.000026    0.000280
C     0.428003    1.271960   -0.097708    0.000007   -0.000016   -0.000259
O    -2.088805   -1.345925    0.058435    0.000003    0.000013    0.000100
O     0.457572    2.462843   -0.197993   -0.000000    0.000000    0.000038
H     2.412135   -1.597923    0.203795    0.000046   -0.000224   -0.002725
H     0.088474   -2.369137    1.352083    0.147122    0.755935   -1.172209
H    -1.651727    1.183756   -0.148220    0.000066    0.000046    0.001646
H     2.594412    0.913352   -0.007969    0.000046    0.000196    0.001868
H     0.201578   -2.008487   -0.312446   -0.087758   -0.956325   -1.041356
13
* Frequency(37) 3382.2451
C     1.628529    0.403275    0.009702   -0.000031    0.000033    0.000573
C     1.558244   -0.920792    0.121927    0.000060   -0.000156   -0.001794
N     0.247772   -1.593047    0.108945   -0.004311    0.014573    0.160975
C    -1.074949   -0.737389    0.033905    0.000007   -0.000089   -0.001055
N    -0.825090    0.582898   -0.073511   -0.000012    0.000026    0.000280
C     0.428003    1.271959   -0.097728    0.000007   -0.000016   -0.000259
O    -2.088805   -1.345924    0.058443    0.000003    0.000013    0.000100
O     0.457572    2.462843   -0.197990   -0.000000    0.000000    0.000038
H     2.412139   -1.597941    0.203583    0.000046   -0.000224   -0.002725
H     0.099955   -2.310148    1.260611    0.147122    0.755935   -1.172209
H    -1.651722    1.183760   -0.148092    0.000066    0.000046    0.001646
H     2.594415    0.913367   -0.007824    0.000046    0.000196    0.001868
H     0.194730   -2.083113   -0.393707   -0.087758   -0.956325   -1.041356
13
* Frequency(37) 3382.2451
C     1.628526    0.403278    0.009760   -0.000031    0.000033    0.000573
C     1.558250   -0.920808    0.121745    0.000060   -0.000156   -0.001794
N     0.247335   -1.591571    0.125257   -0.004311    0.014573    0.160975
C    -1.074948   -0.737398    0.033798    0.000007   -0.000089   -0.001055
N    -0.825091    0.582900   -0.073483   -0.000012    0.000026    0.000280
C     0.428004    1.271958   -0.097755    0.000007   -0.000016   -0.000259
O    -2.088805   -1.345923    0.058453    0.000003    0.000013    0.000100
O     0.457572    2.462843   -0.197987   -0.000000    0.000000    0.000038
H     2.412143   -1.597963    0.203306    0.000046   -0.000224   -0.002725
H     0.114863   -2.233549    1.141831    0.147122    0.755935   -1.172209
H    -1.651716    1.183764   -0.147925    0.000066    0.000046    0.001646
H     2.594420    0.913387   -0.007634    0.000046    0.000196    0.001868
H     0.185837   -2.180017   -0.499227   -0.087758   -0.956325   -1.041356
13
* Frequency(37) 3382.2451
C     1.628522    0.403282    0.009825   -0.000031    0.000033    0.000573
C     1.558257   -0.920826    0.121541    0.000060   -0.000156   -0.001794
N     0.246846   -1.589915    0.143551   -0.004311    0.014573    0.160975
C    -1.074947   -0.737408    0.033678    0.000007   -0.000089   -0.001055
N    -0.825093    0.582903   -0.073451   -0.000012    0.000026    0.000280
C     0.428005    1.271956   -0.097784    0.000007   -0.000016   -0.000259
O    -2.088804   -1.345922    0.058464    0.000003    0.000013    0.000100
O     0.457572    2.462843   -0.197982   -0.000000    0.000000    0.000038
H     2.412149   -1.597989    0.202997    0.000046   -0.000224   -0.002725
H     0.131582   -2.147641    1.008616    0.147122    0.755935   -1.172209
H    -1.651708    1.183769   -0.147738    0.000066    0.000046    0.001646
H     2.594425    0.913409   -0.007422    0.000046    0.000196    0.001868
H     0.175864   -2.288698   -0.617572   -0.087758   -0.956325   -1.041356
