13
* (null), Energy   -1000.0000000
C     1.372793    0.529851   -0.015036    0.002277   -0.008908   -0.100395
C     1.302724   -0.794210    0.095800   -0.007080    0.021429    0.256215
N    -0.008640   -1.463020    0.118827    0.000216   -0.000479   -0.003536
C    -1.330555   -0.610659    0.008144    0.011502   -0.033647   -0.400557
N    -1.080705    0.709657   -0.097399   -0.000062    0.000594    0.000498
C     0.172593    1.398876   -0.122183   -0.013285    0.041507    0.484639
O    -2.344242   -1.219751    0.031049   -0.003298    0.011337    0.136193
O     0.201841    2.589695   -0.223265    0.003533   -0.011714   -0.137682
H     2.156844   -1.471062    0.176152    0.025463   -0.082896   -0.966544
H    -0.124198   -2.019917    0.984598   -0.489713   -0.081302   -0.118382
H    -1.907129    1.310644   -0.173530    0.006529   -0.015659   -0.199321
H     2.338608    1.040183   -0.032851    0.037099   -0.120267   -1.404062
H    -0.080594   -2.162817   -0.641747    0.493219    0.061634   -0.104437
13
* Frequency(15)  670.0767
C     1.373052    0.528839   -0.026445    0.002277   -0.008908   -0.100395
C     1.301919   -0.791774    0.124918   -0.007080    0.021429    0.256215
N    -0.008616   -1.463075    0.118425    0.000216   -0.000479   -0.003536
C    -1.329248   -0.614483   -0.037377    0.011502   -0.033647   -0.400557
N    -1.080712    0.709725   -0.097342   -0.000062    0.000594    0.000498
C     0.171084    1.403593   -0.067106   -0.013285    0.041507    0.484639
O    -2.344617   -1.218462    0.046526   -0.003298    0.011337    0.136193
O     0.202243    2.588364   -0.238911    0.003533   -0.011714   -0.137682
H     2.159737   -1.480482    0.066309    0.025463   -0.082896   -0.966544
H    -0.179851   -2.029156    0.971145   -0.489713   -0.081302   -0.118382
H    -1.906387    1.308864   -0.196182    0.006529   -0.015659   -0.199321
H     2.342824    1.026515   -0.192416    0.037099   -0.120267   -1.404062
H    -0.024542   -2.155813   -0.653616    0.493219    0.061634   -0.104437
13
* Frequency(15)  670.0767
C     1.373282    0.527936   -0.036618    0.002277   -0.008908   -0.100395
C     1.301202   -0.789603    0.150880   -0.007080    0.021429    0.256215
N    -0.008594   -1.463123    0.118067    0.000216   -0.000479   -0.003536
C    -1.328083   -0.617892   -0.077965    0.011502   -0.033647   -0.400557
N    -1.080718    0.709785   -0.097292   -0.000062    0.000594    0.000498
C     0.169737    1.407799   -0.017998   -0.013285    0.041507    0.484639
O    -2.344951   -1.217314    0.060327   -0.003298    0.011337    0.136193
O     0.202601    2.587177   -0.252863    0.003533   -0.011714   -0.137682
H     2.162318   -1.488882   -0.031631    0.025463   -0.082896   -0.966544
H    -0.229473   -2.037394    0.959149   -0.489713   -0.081302   -0.118382
H    -1.905725    1.307277   -0.216379    0.006529   -0.015659   -0.199321
H     2.346583    1.014328   -0.334689    0.037099   -0.120267   -1.404062
H     0.025436   -2.149567   -0.664199    0.493219    0.061634   -0.104437
13
* Frequency(15)  670.0767
C     1.373460    0.527241   -0.044453    0.002277   -0.008908   -0.100395
C     1.300649   -0.787931    0.170873   -0.007080    0.021429    0.256215
N    -0.008577   -1.463161    0.117791    0.000216   -0.000479   -0.003536
C    -1.327185   -0.620518   -0.109222    0.011502   -0.033647   -0.400557
N    -1.080723    0.709831   -0.097253   -0.000062    0.000594    0.000498
C     0.168701    1.411038    0.019821   -0.013285    0.041507    0.484639
O    -2.345208   -1.216429    0.070954   -0.003298    0.011337    0.136193
O     0.202877    2.586263   -0.263607    0.003533   -0.011714   -0.137682
H     2.164305   -1.495351   -0.107054    0.025463   -0.082896   -0.966544
H    -0.267687   -2.043739    0.949911   -0.489713   -0.081302   -0.118382
H    -1.905216    1.306055   -0.231932    0.006529   -0.015659   -0.199321
H     2.349478    1.004944   -0.444253    0.037099   -0.120267   -1.404062
H     0.063924   -2.144758   -0.672348    0.493219    0.061634   -0.104437
13
* Frequency(15)  670.0767
C     1.373565    0.526829   -0.049099    0.002277   -0.008908   -0.100395
C     1.300322   -0.786939    0.182732   -0.007080    0.021429    0.256215
N    -0.008567   -1.463183    0.117627    0.000216   -0.000479   -0.003536
C    -1.326653   -0.622075   -0.127761    0.011502   -0.033647   -0.400557
N    -1.080726    0.709859   -0.097230   -0.000062    0.000594    0.000498
C     0.168086    1.412959    0.042251   -0.013285    0.041507    0.484639
O    -2.345361   -1.215904    0.077258   -0.003298    0.011337    0.136193
O     0.203040    2.585721   -0.269979    0.003533   -0.011714   -0.137682
H     2.165483   -1.499188   -0.151787    0.025463   -0.082896   -0.966544
H    -0.290352   -2.047502    0.944432   -0.489713   -0.081302   -0.118382
H    -1.904914    1.305331   -0.241157    0.006529   -0.015659   -0.199321
H     2.351195    0.999377   -0.509236    0.037099   -0.120267   -1.404062
H     0.086751   -2.141905   -0.677182    0.493219    0.061634   -0.104437
13
* Frequency(15)  670.0767
C     1.373587    0.526744   -0.050054    0.002277   -0.008908   -0.100395
C     1.300254   -0.786735    0.185169   -0.007080    0.021429    0.256215
N    -0.008565   -1.463187    0.117594    0.000216   -0.000479   -0.003536
C    -1.326543   -0.622395   -0.131572    0.011502   -0.033647   -0.400557
N    -1.080727    0.709864   -0.097225   -0.000062    0.000594    0.000498
C     0.167959    1.413354    0.046862   -0.013285    0.041507    0.484639
O    -2.345392   -1.215796    0.078553   -0.003298    0.011337    0.136193
O     0.203074    2.585609   -0.271289    0.003533   -0.011714   -0.137682
H     2.165725   -1.499976   -0.160983    0.025463   -0.082896   -0.966544
H    -0.295012   -2.048275    0.943306   -0.489713   -0.081302   -0.118382
H    -1.904851    1.305182   -0.243054    0.006529   -0.015659   -0.199321
H     2.351548    0.998233   -0.522595    0.037099   -0.120267   -1.404062
H     0.091443   -2.141319   -0.678175    0.493219    0.061634   -0.104437
13
* Frequency(15)  670.0767
C     1.373523    0.526996   -0.047215    0.002277   -0.008908   -0.100395
C     1.300454   -0.787341    0.177923   -0.007080    0.021429    0.256215
N    -0.008571   -1.463174    0.117694    0.000216   -0.000479   -0.003536
C    -1.326869   -0.621444   -0.120242    0.011502   -0.033647   -0.400557
N    -1.080725    0.709847   -0.097239   -0.000062    0.000594    0.000498
C     0.168335    1.412180    0.033154   -0.013285    0.041507    0.484639
O    -2.345299   -1.216117    0.074701   -0.003298    0.011337    0.136193
O     0.202974    2.585941   -0.267394    0.003533   -0.011714   -0.137682
H     2.165005   -1.497632   -0.133646    0.025463   -0.082896   -0.966544
H    -0.281161   -2.045976    0.946654   -0.489713   -0.081302   -0.118382
H    -1.905036    1.305625   -0.237416    0.006529   -0.015659   -0.199321
H     2.350498    1.001635   -0.482882    0.037099   -0.120267   -1.404062
H     0.077493   -2.143062   -0.675222    0.493219    0.061634   -0.104437
13
* Frequency(15)  670.0767
C     1.373379    0.527557   -0.040888    0.002277   -0.008908   -0.100395
C     1.300901   -0.788692    0.161777   -0.007080    0.021429    0.256215
N    -0.008584   -1.463144    0.117917    0.000216   -0.000479   -0.003536
C    -1.327594   -0.619323   -0.095000    0.011502   -0.033647   -0.400557
N    -1.080721    0.709810   -0.097271   -0.000062    0.000594    0.000498
C     0.169172    1.409564    0.002614   -0.013285    0.041507    0.484639
O    -2.345091   -1.216831    0.066119   -0.003298    0.011337    0.136193
O     0.202751    2.586679   -0.258718    0.003533   -0.011714   -0.137682
H     2.163401   -1.492408   -0.072737    0.025463   -0.082896   -0.966544
H    -0.250300   -2.040852    0.954115   -0.489713   -0.081302   -0.118382
H    -1.905448    1.306611   -0.224856    0.006529   -0.015659   -0.199321
H     2.348161    1.009214   -0.394402    0.037099   -0.120267   -1.404062
H     0.046412   -2.146946   -0.668640    0.493219    0.061634   -0.104437
13
* Frequency(15)  670.0767
C     1.373172    0.528367   -0.031760    0.002277   -0.008908   -0.100395
C     1.301544   -0.790640    0.138481   -0.007080    0.021429    0.256215
N    -0.008604   -1.463100    0.118238    0.000216   -0.000479   -0.003536
C    -1.328639   -0.616264   -0.058581    0.011502   -0.033647   -0.400557
N    -1.080715    0.709756   -0.097316   -0.000062    0.000594    0.000498
C     0.170380    1.405790   -0.041451   -0.013285    0.041507    0.484639
O    -2.344791   -1.217862    0.053736   -0.003298    0.011337    0.136193
O     0.202430    2.587744   -0.246200    0.003533   -0.011714   -0.137682
H     2.161085   -1.484871    0.015143    0.025463   -0.082896   -0.966544
H    -0.205775   -2.033460    0.964878   -0.489713   -0.081302   -0.118382
H    -1.906041    1.308035   -0.206733    0.006529   -0.015659   -0.199321
H     2.344788    1.020149   -0.266742    0.037099   -0.120267   -1.404062
H     0.001568   -2.152550   -0.659145    0.493219    0.061634   -0.104437
13
* Frequency(15)  670.0767
C     1.372924    0.529338   -0.020820    0.002277   -0.008908   -0.100395
C     1.302316   -0.792975    0.110560   -0.007080    0.021429    0.256215
N    -0.008628   -1.463048    0.118623    0.000216   -0.000479   -0.003536
C    -1.329893   -0.612598   -0.014931    0.011502   -0.033647   -0.400557
N    -1.080709    0.709691   -0.097370   -0.000062    0.000594    0.000498
C     0.171828    1.401267   -0.094264   -0.013285    0.041507    0.484639
O    -2.344432   -1.219098    0.038895   -0.003298    0.011337    0.136193
O     0.202045    2.589020   -0.231196    0.003533   -0.011714   -0.137682
H     2.158310   -1.475837    0.120471    0.025463   -0.082896   -0.966544
H    -0.152409   -2.024600    0.977778   -0.489713   -0.081302   -0.118382
H    -1.906753    1.309742   -0.185012    0.006529   -0.015659   -0.199321
H     2.340745    1.033254   -0.113737    0.037099   -0.120267   -1.404062
H    -0.052180   -2.159266   -0.647764    0.493219    0.061634   -0.104437
13
* Frequency(15)  670.0767
C     1.372662    0.530364   -0.009253    0.002277   -0.008908   -0.100395
C     1.303132   -0.795444    0.081040   -0.007080    0.021429    0.256215
N    -0.008653   -1.462993    0.119031    0.000216   -0.000479   -0.003536
C    -1.331218   -0.608721    0.031220    0.011502   -0.033647   -0.400557
N    -1.080701    0.709623   -0.097427   -0.000062    0.000594    0.000498
C     0.173359    1.396485   -0.150102   -0.013285    0.041507    0.484639
O    -2.344052   -1.220404    0.023203   -0.003298    0.011337    0.136193
O     0.201638    2.590370   -0.215333    0.003533   -0.011714   -0.137682
H     2.155377   -1.466286    0.231833    0.025463   -0.082896   -0.966544
H    -0.095986   -2.015233    0.991418   -0.489713   -0.081302   -0.118382
H    -1.907505    1.311546   -0.162047    0.006529   -0.015659   -0.199321
H     2.336470    1.047111    0.048034    0.037099   -0.120267   -1.404062
H    -0.109007   -2.166368   -0.635731    0.493219    0.061634   -0.104437
13
* Frequency(15)  670.0767
C     1.372413    0.531335    0.001688    0.002277   -0.008908   -0.100395
C     1.303903   -0.797779    0.053120   -0.007080    0.021429    0.256215
N    -0.008676   -1.462941    0.119416    0.000216   -0.000479   -0.003536
C    -1.332472   -0.605054    0.074870    0.011502   -0.033647   -0.400557
N    -1.080695    0.709558   -0.097482   -0.000062    0.000594    0.000498
C     0.174806    1.391961   -0.202915   -0.013285    0.041507    0.484639
O    -2.343693   -1.221639    0.008361   -0.003298    0.011337    0.136193
O     0.201253    2.591647   -0.200329    0.003533   -0.011714   -0.137682
H     2.152602   -1.457253    0.337160    0.025463   -0.082896   -0.966544
H    -0.042620   -2.006373    1.004318   -0.489713   -0.081302   -0.118382
H    -1.908216    1.313252   -0.140327    0.006529   -0.015659   -0.199321
H     2.332428    1.060217    0.201039    0.037099   -0.120267   -1.404062
H    -0.162755   -2.173084   -0.624350    0.493219    0.061634   -0.104437
13
* Frequency(15)  670.0767
C     1.372206    0.532145    0.010816    0.002277   -0.008908   -0.100395
C     1.304547   -0.799727    0.029824   -0.007080    0.021429    0.256215
N    -0.008696   -1.462897    0.119738    0.000216   -0.000479   -0.003536
C    -1.333517   -0.601995    0.111289    0.011502   -0.033647   -0.400557
N    -1.080689    0.709504   -0.097527   -0.000062    0.000594    0.000498
C     0.176014    1.388188   -0.246979   -0.013285    0.041507    0.484639
O    -2.343393   -1.222670   -0.004021   -0.003298    0.011337    0.136193
O     0.200931    2.592712   -0.187811    0.003533   -0.011714   -0.137682
H     2.150287   -1.449716    0.425040    0.025463   -0.082896   -0.966544
H     0.001905   -1.998981    1.015082   -0.489713   -0.081302   -0.118382
H    -1.908810    1.314676   -0.122204    0.006529   -0.015659   -0.199321
H     2.329054    1.071152    0.328699    0.037099   -0.120267   -1.404062
H    -0.207599   -2.178688   -0.614854    0.493219    0.061634   -0.104437
13
* Frequency(15)  670.0767
C     1.372063    0.532706    0.017143    0.002277   -0.008908   -0.100395
C     1.304993   -0.801078    0.013678   -0.007080    0.021429    0.256215
N    -0.008709   -1.462867    0.119961    0.000216   -0.000479   -0.003536
C    -1.334242   -0.599875    0.136531    0.011502   -0.033647   -0.400557
N    -1.080685    0.709466   -0.097558   -0.000062    0.000594    0.000498
C     0.176852    1.385572   -0.277520   -0.013285    0.041507    0.484639
O    -2.343185   -1.223385   -0.012604   -0.003298    0.011337    0.136193
O     0.200709    2.593450   -0.179135    0.003533   -0.011714   -0.137682
H     2.148682   -1.444492    0.485949    0.025463   -0.082896   -0.966544
H     0.032765   -1.993858    1.022542   -0.489713   -0.081302   -0.118382
H    -1.909222    1.315663   -0.109643    0.006529   -0.015659   -0.199321
H     2.326717    1.078731    0.417179    0.037099   -0.120267   -1.404062
H    -0.238680   -2.182572   -0.608273    0.493219    0.061634   -0.104437
13
* Frequency(15)  670.0767
C     1.371998    0.532958    0.019982    0.002277   -0.008908   -0.100395
C     1.305194   -0.801684    0.006431   -0.007080    0.021429    0.256215
N    -0.008715   -1.462853    0.120061    0.000216   -0.000479   -0.003536
C    -1.334568   -0.598923    0.147861    0.011502   -0.033647   -0.400557
N    -1.080683    0.709450   -0.097572   -0.000062    0.000594    0.000498
C     0.177227    1.384398   -0.291227   -0.013285    0.041507    0.484639
O    -2.343092   -1.223705   -0.016456   -0.003298    0.011337    0.136193
O     0.200609    2.593781   -0.175241    0.003533   -0.011714   -0.137682
H     2.147962   -1.442147    0.513287    0.025463   -0.082896   -0.966544
H     0.046616   -1.991558    1.025890   -0.489713   -0.081302   -0.118382
H    -1.909406    1.316106   -0.104006    0.006529   -0.015659   -0.199321
H     2.325667    1.082132    0.456892    0.037099   -0.120267   -1.404062
H    -0.252631   -2.184315   -0.605319    0.493219    0.061634   -0.104437
13
* Frequency(15)  670.0767
C     1.372020    0.532873    0.019027    0.002277   -0.008908   -0.100395
C     1.305126   -0.801480    0.008869   -0.007080    0.021429    0.256215
N    -0.008713   -1.462858    0.120027    0.000216   -0.000479   -0.003536
C    -1.334458   -0.599243    0.144050    0.011502   -0.033647   -0.400557
N    -1.080684    0.709455   -0.097567   -0.000062    0.000594    0.000498
C     0.177101    1.384793   -0.286616   -0.013285    0.041507    0.484639
O    -2.343123   -1.223598   -0.015160   -0.003298    0.011337    0.136193
O     0.200642    2.593670   -0.176551    0.003533   -0.011714   -0.137682
H     2.148204   -1.442936    0.504091    0.025463   -0.082896   -0.966544
H     0.041957   -1.992332    1.024764   -0.489713   -0.081302   -0.118382
H    -1.909344    1.315957   -0.105902    0.006529   -0.015659   -0.199321
H     2.326020    1.080988    0.443533    0.037099   -0.120267   -1.404062
H    -0.247938   -2.183729   -0.606313    0.493219    0.061634   -0.104437
13
* Frequency(15)  670.0767
C     1.372125    0.532461    0.014381    0.002277   -0.008908   -0.100395
C     1.304799   -0.800488    0.020727   -0.007080    0.021429    0.256215
N    -0.008703   -1.462880    0.119863    0.000216   -0.000479   -0.003536
C    -1.333926   -0.600800    0.125511    0.011502   -0.033647   -0.400557
N    -1.080687    0.709483   -0.097544   -0.000062    0.000594    0.000498
C     0.176486    1.386714   -0.264186   -0.013285    0.041507    0.484639
O    -2.343276   -1.223073   -0.008857   -0.003298    0.011337    0.136193
O     0.200806    2.593127   -0.182923    0.003533   -0.011714   -0.137682
H     2.149383   -1.446772    0.459357    0.025463   -0.082896   -0.966544
H     0.019292   -1.996095    1.019285   -0.489713   -0.081302   -0.118382
H    -1.909042    1.315232   -0.115127    0.006529   -0.015659   -0.199321
H     2.327737    1.075422    0.378550    0.037099   -0.120267   -1.404062
H    -0.225111   -2.180876   -0.611146    0.493219    0.061634   -0.104437
13
* Frequency(15)  670.0767
C     1.372303    0.531766    0.006546    0.002277   -0.008908   -0.100395
C     1.304246   -0.798816    0.040721   -0.007080    0.021429    0.256215
N    -0.008687   -1.462917    0.119587    0.000216   -0.000479   -0.003536
C    -1.333028   -0.603426    0.094254    0.011502   -0.033647   -0.400557
N    -1.080692    0.709529   -0.097506   -0.000062    0.000594    0.000498
C     0.175449    1.389953   -0.226368   -0.013285    0.041507    0.484639
O    -2.343533   -1.222188    0.001771   -0.003298    0.011337    0.136193
O     0.201082    2.592213   -0.193667    0.003533   -0.011714   -0.137682
H     2.151370   -1.453241    0.383934    0.025463   -0.082896   -0.966544
H    -0.018922   -2.002439    1.010047   -0.489713   -0.081302   -0.118382
H    -1.908532    1.314010   -0.130681    0.006529   -0.015659   -0.199321
H     2.330632    1.066037    0.268986    0.037099   -0.120267   -1.404062
H    -0.186623   -2.176067   -0.619296    0.493219    0.061634   -0.104437
13
* Frequency(15)  670.0767
C     1.372534    0.530863   -0.003627    0.002277   -0.008908   -0.100395
C     1.303529   -0.796645    0.066683   -0.007080    0.021429    0.256215
N    -0.008665   -1.462966    0.119229    0.000216   -0.000479   -0.003536
C    -1.331863   -0.606835    0.053666    0.011502   -0.033647   -0.400557
N    -1.080698    0.709589   -0.097455   -0.000062    0.000594    0.000498
C     0.174103    1.394159   -0.177260   -0.013285    0.041507    0.484639
O    -2.343867   -1.221039    0.015571   -0.003298    0.011337    0.136193
O     0.201440    2.591026   -0.207618    0.003533   -0.011714   -0.137682
H     2.153950   -1.461641    0.285995    0.025463   -0.082896   -0.966544
H    -0.068544   -2.010677    0.998052   -0.489713   -0.081302   -0.118382
H    -1.907871    1.312423   -0.150878    0.006529   -0.015659   -0.199321
H     2.334391    1.053850    0.126713    0.037099   -0.120267   -1.404062
H    -0.136645   -2.169821   -0.629878    0.493219    0.061634   -0.104437
13
* Frequency(15)  670.0767
C     1.372793    0.529851   -0.015036    0.002277   -0.008908   -0.100395
C     1.302724   -0.794210    0.095800   -0.007080    0.021429    0.256215
N    -0.008640   -1.463020    0.118827    0.000216   -0.000479   -0.003536
C    -1.330555   -0.610659    0.008144    0.011502   -0.033647   -0.400557
N    -1.080705    0.709657   -0.097399   -0.000062    0.000594    0.000498
C     0.172593    1.398876   -0.122183   -0.013285    0.041507    0.484639
O    -2.344242   -1.219751    0.031049   -0.003298    0.011337    0.136193
O     0.201841    2.589695   -0.223265    0.003533   -0.011714   -0.137682
H     2.156844   -1.471062    0.176152    0.025463   -0.082896   -0.966544
H    -0.124198   -2.019917    0.984598   -0.489713   -0.081302   -0.118382
H    -1.907129    1.310644   -0.173530    0.006529   -0.015659   -0.199321
H     2.338608    1.040183   -0.032851    0.037099   -0.120267   -1.404062
H    -0.080594   -2.162817   -0.641747    0.493219    0.061634   -0.104437
