13
* (null), Energy   -1000.0000000
C     1.372793    0.529851   -0.015036    0.003226   -0.008527   -0.100283
C     1.302724   -0.794210    0.095800    0.000931   -0.002656   -0.030497
N    -0.008640   -1.463020    0.118827    0.001734   -0.006434   -0.076793
C    -1.330555   -0.610659    0.008144    0.002264   -0.006251   -0.066352
N    -1.080705    0.709657   -0.097399   -0.005771    0.016155    0.188785
C     0.172593    1.398876   -0.122183   -0.001356    0.005008    0.055861
O    -2.344242   -1.219751    0.031049   -0.001460    0.004092    0.045894
O     0.201841    2.589695   -0.223265   -0.000198    0.000544    0.004312
H     2.156844   -1.471062    0.176152   -0.016657    0.052647    0.621134
H    -0.124198   -2.019917    0.984598    0.023978    0.242921    0.084512
H    -1.907129    1.310644   -0.173530    0.052018   -0.158185   -1.813345
H     2.338608    1.040183   -0.032851   -0.007549    0.026352    0.313612
H    -0.080594   -2.162817   -0.641747   -0.029722   -0.224345    0.124324
13
* Frequency(16)  746.4689
C     1.373159    0.528882   -0.026433    0.003226   -0.008527   -0.100283
C     1.302830   -0.794511    0.092334    0.000931   -0.002656   -0.030497
N    -0.008443   -1.463752    0.110100    0.001734   -0.006434   -0.076793
C    -1.330298   -0.611370    0.000604    0.002264   -0.006251   -0.066352
N    -1.081361    0.711493   -0.075944   -0.005771    0.016155    0.188785
C     0.172439    1.399445   -0.115834   -0.001356    0.005008    0.055861
O    -2.344408   -1.219286    0.036264   -0.001460    0.004092    0.045894
O     0.201819    2.589757   -0.222775   -0.000198    0.000544    0.004312
H     2.154951   -1.465079    0.246740   -0.016657    0.052647    0.621134
H    -0.121473   -1.992310    0.994203    0.023978    0.242921    0.084512
H    -1.901217    1.292667   -0.379607    0.052018   -0.158185   -1.813345
H     2.337750    1.043178    0.002789   -0.007549    0.026352    0.313612
H    -0.083971   -2.188313   -0.627618   -0.029722   -0.224345    0.124324
13
* Frequency(16)  746.4689
C     1.373486    0.528018   -0.036594    0.003226   -0.008527   -0.100283
C     1.302924   -0.794781    0.089244    0.000931   -0.002656   -0.030497
N    -0.008267   -1.464404    0.102319    0.001734   -0.006434   -0.076793
C    -1.330069   -0.612003   -0.006119    0.002264   -0.006251   -0.066352
N    -1.081946    0.713130   -0.056815   -0.005771    0.016155    0.188785
C     0.172302    1.399952   -0.110174   -0.001356    0.005008    0.055861
O    -2.344556   -1.218871    0.040915   -0.001460    0.004092    0.045894
O     0.201799    2.589812   -0.222338   -0.000198    0.000544    0.004312
H     2.153263   -1.459744    0.309680   -0.016657    0.052647    0.621134
H    -0.119043   -1.967695    1.002766    0.023978    0.242921    0.084512
H    -1.895946    1.276638   -0.563353    0.052018   -0.158185   -1.813345
H     2.336985    1.045848    0.034567   -0.007549    0.026352    0.313612
H    -0.086983   -2.211046   -0.615021   -0.029722   -0.224345    0.124324
13
* Frequency(16)  746.4689
C     1.373738    0.527353   -0.044420    0.003226   -0.008527   -0.100283
C     1.302997   -0.794988    0.086864    0.000931   -0.002656   -0.030497
N    -0.008132   -1.464906    0.096326    0.001734   -0.006434   -0.076793
C    -1.329892   -0.612491   -0.011297    0.002264   -0.006251   -0.066352
N    -1.082396    0.714391   -0.042083   -0.005771    0.016155    0.188785
C     0.172196    1.400343   -0.105815   -0.001356    0.005008    0.055861
O    -2.344670   -1.218552    0.044496   -0.001460    0.004092    0.045894
O     0.201783    2.589855   -0.222001   -0.000198    0.000544    0.004312
H     2.151963   -1.455636    0.358149   -0.016657    0.052647    0.621134
H    -0.117172   -1.948739    1.009361    0.023978    0.242921    0.084512
H    -1.891887    1.264294   -0.704855    0.052018   -0.158185   -1.813345
H     2.336396    1.047904    0.059039   -0.007549    0.026352    0.313612
H    -0.089302   -2.228552   -0.605319   -0.029722   -0.224345    0.124324
13
* Frequency(16)  746.4689
C     1.373887    0.526958   -0.049061    0.003226   -0.008527   -0.100283
C     1.303040   -0.795111    0.085453    0.000931   -0.002656   -0.030497
N    -0.008052   -1.465203    0.092772    0.001734   -0.006434   -0.076793
C    -1.329787   -0.612780   -0.014368    0.002264   -0.006251   -0.066352
N    -1.082663    0.715138   -0.033346   -0.005771    0.016155    0.188785
C     0.172133    1.400575   -0.103230   -0.001356    0.005008    0.055861
O    -2.344737   -1.218362    0.046620   -0.001460    0.004092    0.045894
O     0.201774    2.589880   -0.221802   -0.000198    0.000544    0.004312
H     2.151192   -1.453199    0.386896   -0.016657    0.052647    0.621134
H    -0.116062   -1.937496    1.013272    0.023978    0.242921    0.084512
H    -1.889480    1.256973   -0.788780    0.052018   -0.158185   -1.813345
H     2.336046    1.049124    0.073554   -0.007549    0.026352    0.313612
H    -0.090678   -2.238935   -0.599565   -0.029722   -0.224345    0.124324
13
* Frequency(16)  746.4689
C     1.373918    0.526877   -0.050015    0.003226   -0.008527   -0.100283
C     1.303049   -0.795136    0.085163    0.000931   -0.002656   -0.030497
N    -0.008035   -1.465265    0.092041    0.001734   -0.006434   -0.076793
C    -1.329766   -0.612840   -0.014999    0.002264   -0.006251   -0.066352
N    -1.082718    0.715292   -0.031550   -0.005771    0.016155    0.188785
C     0.172120    1.400623   -0.102698   -0.001356    0.005008    0.055861
O    -2.344751   -1.218323    0.047057   -0.001460    0.004092    0.045894
O     0.201772    2.589885   -0.221761   -0.000198    0.000544    0.004312
H     2.151034   -1.452698    0.392806   -0.016657    0.052647    0.621134
H    -0.115834   -1.935185    1.014076    0.023978    0.242921    0.084512
H    -1.888985    1.255468   -0.806033    0.052018   -0.158185   -1.813345
H     2.335974    1.049375    0.076538   -0.007549    0.026352    0.313612
H    -0.090961   -2.241070   -0.598382   -0.029722   -0.224345    0.124324
13
* Frequency(16)  746.4689
C     1.373827    0.527118   -0.047179    0.003226   -0.008527   -0.100283
C     1.303022   -0.795061    0.086025    0.000931   -0.002656   -0.030497
N    -0.008084   -1.465083    0.094213    0.001734   -0.006434   -0.076793
C    -1.329830   -0.612663   -0.013123    0.002264   -0.006251   -0.066352
N    -1.082555    0.714835   -0.036889   -0.005771    0.016155    0.188785
C     0.172159    1.400481   -0.104278   -0.001356    0.005008    0.055861
O    -2.344710   -1.218439    0.045759   -0.001460    0.004092    0.045894
O     0.201778    2.589870   -0.221883   -0.000198    0.000544    0.004312
H     2.151505   -1.454187    0.375238   -0.016657    0.052647    0.621134
H    -0.116512   -1.942056    1.011686    0.023978    0.242921    0.084512
H    -1.890456    1.259942   -0.754744    0.052018   -0.158185   -1.813345
H     2.336188    1.048629    0.067668   -0.007549    0.026352    0.313612
H    -0.090120   -2.234724   -0.601899   -0.029722   -0.224345    0.124324
13
* Frequency(16)  746.4689
C     1.373623    0.527655   -0.040859    0.003226   -0.008527   -0.100283
C     1.302964   -0.794893    0.087947    0.000931   -0.002656   -0.030497
N    -0.008194   -1.464677    0.099053    0.001734   -0.006434   -0.076793
C    -1.329972   -0.612269   -0.008941    0.002264   -0.006251   -0.066352
N    -1.082191    0.713817   -0.048786   -0.005771    0.016155    0.188785
C     0.172244    1.400165   -0.107798   -0.001356    0.005008    0.055861
O    -2.344618   -1.218697    0.042867   -0.001460    0.004092    0.045894
O     0.201790    2.589835   -0.222154   -0.000198    0.000544    0.004312
H     2.152554   -1.457505    0.336096   -0.016657    0.052647    0.621134
H    -0.118023   -1.957364    1.006360    0.023978    0.242921    0.084512
H    -1.893734    1.269911   -0.640472    0.052018   -0.158185   -1.813345
H     2.336664    1.046969    0.047905   -0.007549    0.026352    0.313612
H    -0.088247   -2.220587   -0.609733   -0.029722   -0.224345    0.124324
13
* Frequency(16)  746.4689
C     1.373330    0.528431   -0.031741    0.003226   -0.008527   -0.100283
C     1.302879   -0.794652    0.090720    0.000931   -0.002656   -0.030497
N    -0.008351   -1.464092    0.106035    0.001734   -0.006434   -0.076793
C    -1.330178   -0.611701   -0.002909    0.002264   -0.006251   -0.066352
N    -1.081666    0.712348   -0.065951   -0.005771    0.016155    0.188785
C     0.172367    1.399710   -0.112877   -0.001356    0.005008    0.055861
O    -2.344485   -1.219069    0.038694   -0.001460    0.004092    0.045894
O     0.201808    2.589786   -0.222546   -0.000198    0.000544    0.004312
H     2.154069   -1.462292    0.279621   -0.016657    0.052647    0.621134
H    -0.120203   -1.979451    0.998676    0.023978    0.242921    0.084512
H    -1.898464    1.284293   -0.475600    0.052018   -0.158185   -1.813345
H     2.337350    1.044573    0.019391   -0.007549    0.026352    0.313612
H    -0.085545   -2.200189   -0.621037   -0.029722   -0.224345    0.124324
13
* Frequency(16)  746.4689
C     1.372979    0.529360   -0.020813    0.003226   -0.008527   -0.100283
C     1.302778   -0.794363    0.094043    0.000931   -0.002656   -0.030497
N    -0.008540   -1.463391    0.114403    0.001734   -0.006434   -0.076793
C    -1.330425   -0.611019    0.004322    0.002264   -0.006251   -0.066352
N    -1.081037    0.710588   -0.086523   -0.005771    0.016155    0.188785
C     0.172515    1.399164   -0.118965   -0.001356    0.005008    0.055861
O    -2.344326   -1.219515    0.033693   -0.001460    0.004092    0.045894
O     0.201830    2.589727   -0.223016   -0.000198    0.000544    0.004312
H     2.155884   -1.468029    0.211934   -0.016657    0.052647    0.621134
H    -0.122816   -2.005923    0.989467    0.023978    0.242921    0.084512
H    -1.904132    1.301531   -0.277993    0.052018   -0.158185   -1.813345
H     2.338173    1.041701   -0.014785   -0.007549    0.026352    0.313612
H    -0.082306   -2.175741   -0.634585   -0.029722   -0.224345    0.124324
13
* Frequency(16)  746.4689
C     1.372607    0.530342   -0.009259    0.003226   -0.008527   -0.100283
C     1.302670   -0.794057    0.097557    0.000931   -0.002656   -0.030497
N    -0.008740   -1.462650    0.123251    0.001734   -0.006434   -0.076793
C    -1.330686   -0.610299    0.011967    0.002264   -0.006251   -0.066352
N    -1.080372    0.708726   -0.108274   -0.005771    0.016155    0.188785
C     0.172671    1.398587   -0.125401   -0.001356    0.005008    0.055861
O    -2.344158   -1.219987    0.028405   -0.001460    0.004092    0.045894
O     0.201853    2.589664   -0.223513   -0.000198    0.000544    0.004312
H     2.157803   -1.474095    0.140369   -0.016657    0.052647    0.621134
H    -0.125579   -2.033911    0.979730    0.023978    0.242921    0.084512
H    -1.910125    1.319756   -0.069066    0.052018   -0.158185   -1.813345
H     2.339042    1.038665   -0.050918   -0.007549    0.026352    0.313612
H    -0.078881   -2.149893   -0.648909   -0.029722   -0.224345    0.124324
13
* Frequency(16)  746.4689
C     1.372255    0.531272    0.001669    0.003226   -0.008527   -0.100283
C     1.302569   -0.793767    0.100880    0.000931   -0.002656   -0.030497
N    -0.008929   -1.461949    0.131619    0.001734   -0.006434   -0.076793
C    -1.330933   -0.609618    0.019197    0.002264   -0.006251   -0.066352
N    -1.079744    0.706966   -0.128847   -0.005771    0.016155    0.188785
C     0.172819    1.398041   -0.131488   -0.001356    0.005008    0.055861
O    -2.343999   -1.220433    0.023404   -0.001460    0.004092    0.045894
O     0.201874    2.589605   -0.223983   -0.000198    0.000544    0.004312
H     2.159618   -1.479832    0.072682   -0.016657    0.052647    0.621134
H    -0.128192   -2.060383    0.970520    0.023978    0.242921    0.084512
H    -1.915794    1.336994    0.128540    0.052018   -0.158185   -1.813345
H     2.339865    1.035793   -0.085093   -0.007549    0.026352    0.313612
H    -0.075642   -2.125445   -0.662457   -0.029722   -0.224345    0.124324
13
* Frequency(16)  746.4689
C     1.371962    0.532047    0.010787    0.003226   -0.008527   -0.100283
C     1.302484   -0.793526    0.103653    0.000931   -0.002656   -0.030497
N    -0.009087   -1.461363    0.138602    0.001734   -0.006434   -0.076793
C    -1.331138   -0.609049    0.025230    0.002264   -0.006251   -0.066352
N    -1.079219    0.705497   -0.146011   -0.005771    0.016155    0.188785
C     0.172943    1.397586   -0.136567   -0.001356    0.005008    0.055861
O    -2.343866   -1.220805    0.019231   -0.001460    0.004092    0.045894
O     0.201892    2.589555   -0.224375   -0.000198    0.000544    0.004312
H     2.161133   -1.484618    0.016208   -0.016657    0.052647    0.621134
H    -0.130372   -2.082470    0.962836    0.023978    0.242921    0.084512
H    -1.920524    1.351377    0.293413    0.052018   -0.158185   -1.813345
H     2.340551    1.033397   -0.113608   -0.007549    0.026352    0.313612
H    -0.072940   -2.105047   -0.673761   -0.029722   -0.224345    0.124324
13
* Frequency(16)  746.4689
C     1.371759    0.532584    0.017107    0.003226   -0.008527   -0.100283
C     1.302425   -0.793358    0.105575    0.000931   -0.002656   -0.030497
N    -0.009196   -1.460958    0.143441    0.001734   -0.006434   -0.076793
C    -1.331281   -0.608656    0.029412    0.002264   -0.006251   -0.066352
N    -1.078855    0.704479   -0.157908   -0.005771    0.016155    0.188785
C     0.173028    1.397270   -0.140087   -0.001356    0.005008    0.055861
O    -2.343774   -1.221063    0.016339   -0.001460    0.004092    0.045894
O     0.201905    2.589521   -0.224647   -0.000198    0.000544    0.004312
H     2.162183   -1.487936   -0.022934   -0.016657    0.052647    0.621134
H    -0.131883   -2.097778    0.957510    0.023978    0.242921    0.084512
H    -1.923802    1.361345    0.407685    0.052018   -0.158185   -1.813345
H     2.341027    1.031736   -0.133371   -0.007549    0.026352    0.313612
H    -0.071067   -2.090910   -0.681596   -0.029722   -0.224345    0.124324
13
* Frequency(16)  746.4689
C     1.371667    0.532825    0.019943    0.003226   -0.008527   -0.100283
C     1.302399   -0.793283    0.106438    0.000931   -0.002656   -0.030497
N    -0.009245   -1.460776    0.145613    0.001734   -0.006434   -0.076793
C    -1.331345   -0.608479    0.031288    0.002264   -0.006251   -0.066352
N    -1.078692    0.704022   -0.163248   -0.005771    0.016155    0.188785
C     0.173066    1.397129   -0.141667   -0.001356    0.005008    0.055861
O    -2.343733   -1.221178    0.015041   -0.001460    0.004092    0.045894
O     0.201910    2.589505   -0.224769   -0.000198    0.000544    0.004312
H     2.162654   -1.489425   -0.040503   -0.016657    0.052647    0.621134
H    -0.132561   -2.104649    0.955120    0.023978    0.242921    0.084512
H    -1.925273    1.365819    0.458973    0.052018   -0.158185   -1.813345
H     2.341241    1.030991   -0.142241   -0.007549    0.026352    0.313612
H    -0.070226   -2.084564   -0.685112   -0.029722   -0.224345    0.124324
13
* Frequency(16)  746.4689
C     1.371698    0.532744    0.018989    0.003226   -0.008527   -0.100283
C     1.302408   -0.793308    0.106147    0.000931   -0.002656   -0.030497
N    -0.009228   -1.460837    0.144882    0.001734   -0.006434   -0.076793
C    -1.331324   -0.608538    0.030657    0.002264   -0.006251   -0.066352
N    -1.078747    0.704176   -0.161451   -0.005771    0.016155    0.188785
C     0.173054    1.397176   -0.141136   -0.001356    0.005008    0.055861
O    -2.343747   -1.221139    0.015477   -0.001460    0.004092    0.045894
O     0.201908    2.589511   -0.224728   -0.000198    0.000544    0.004312
H     2.162495   -1.488924   -0.034593   -0.016657    0.052647    0.621134
H    -0.132333   -2.102337    0.955924    0.023978    0.242921    0.084512
H    -1.924778    1.364314    0.441720    0.052018   -0.158185   -1.813345
H     2.341169    1.031242   -0.139257   -0.007549    0.026352    0.313612
H    -0.070509   -2.086699   -0.683929   -0.029722   -0.224345    0.124324
13
* Frequency(16)  746.4689
C     1.371847    0.532350    0.014348    0.003226   -0.008527   -0.100283
C     1.302451   -0.793431    0.104736    0.000931   -0.002656   -0.030497
N    -0.009148   -1.461135    0.141328    0.001734   -0.006434   -0.076793
C    -1.331219   -0.608827    0.027586    0.002264   -0.006251   -0.066352
N    -1.079014    0.704923   -0.152714   -0.005771    0.016155    0.188785
C     0.172991    1.397408   -0.138551   -0.001356    0.005008    0.055861
O    -2.343814   -1.220950    0.017601   -0.001460    0.004092    0.045894
O     0.201899    2.589536   -0.224528   -0.000198    0.000544    0.004312
H     2.161724   -1.486488   -0.005846   -0.016657    0.052647    0.621134
H    -0.131223   -2.091095    0.959836    0.023978    0.242921    0.084512
H    -1.922370    1.356993    0.357795    0.052018   -0.158185   -1.813345
H     2.340819    1.032461   -0.124742   -0.007549    0.026352    0.313612
H    -0.071885   -2.097082   -0.678175   -0.029722   -0.224345    0.124324
13
* Frequency(16)  746.4689
C     1.372099    0.531684    0.006522    0.003226   -0.008527   -0.100283
C     1.302524   -0.793639    0.102356    0.000931   -0.002656   -0.030497
N    -0.009013   -1.461637    0.135336    0.001734   -0.006434   -0.076793
C    -1.331042   -0.609315    0.022408    0.002264   -0.006251   -0.066352
N    -1.079464    0.706184   -0.137983   -0.005771    0.016155    0.188785
C     0.172885    1.397799   -0.134192   -0.001356    0.005008    0.055861
O    -2.343928   -1.220631    0.021183   -0.001460    0.004092    0.045894
O     0.201884    2.589578   -0.224192   -0.000198    0.000544    0.004312
H     2.160424   -1.482379    0.042624   -0.016657    0.052647    0.621134
H    -0.129352   -2.072138    0.966430    0.023978    0.242921    0.084512
H    -1.918311    1.344649    0.216293    0.052018   -0.158185   -1.813345
H     2.340230    1.034518   -0.100270   -0.007549    0.026352    0.313612
H    -0.074204   -2.114589   -0.668474   -0.029722   -0.224345    0.124324
13
* Frequency(16)  746.4689
C     1.372426    0.530820   -0.003639    0.003226   -0.008527   -0.100283
C     1.302618   -0.793908    0.099266    0.000931   -0.002656   -0.030497
N    -0.008837   -1.462289    0.127554    0.001734   -0.006434   -0.076793
C    -1.330813   -0.609949    0.015685    0.002264   -0.006251   -0.066352
N    -1.080049    0.707821   -0.118853   -0.005771    0.016155    0.188785
C     0.172747    1.398307   -0.128531   -0.001356    0.005008    0.055861
O    -2.344076   -1.220216    0.025833   -0.001460    0.004092    0.045894
O     0.201864    2.589633   -0.223755   -0.000198    0.000544    0.004312
H     2.158737   -1.477045    0.105563   -0.016657    0.052647    0.621134
H    -0.126923   -2.047523    0.974994    0.023978    0.242921    0.084512
H    -1.913040    1.328620    0.032548    0.052018   -0.158185   -1.813345
H     2.339465    1.037188   -0.068492   -0.007549    0.026352    0.313612
H    -0.077216   -2.137321   -0.655876   -0.029722   -0.224345    0.124324
13
* Frequency(16)  746.4689
C     1.372793    0.529851   -0.015036    0.003226   -0.008527   -0.100283
C     1.302724   -0.794210    0.095800    0.000931   -0.002656   -0.030497
N    -0.008640   -1.463020    0.118827    0.001734   -0.006434   -0.076793
C    -1.330555   -0.610659    0.008144    0.002264   -0.006251   -0.066352
N    -1.080705    0.709657   -0.097399   -0.005771    0.016155    0.188785
C     0.172593    1.398876   -0.122183   -0.001356    0.005008    0.055861
O    -2.344242   -1.219751    0.031049   -0.001460    0.004092    0.045894
O     0.201841    2.589695   -0.223265   -0.000198    0.000544    0.004312
H     2.156844   -1.471062    0.176152   -0.016657    0.052647    0.621134
H    -0.124198   -2.019917    0.984598    0.023978    0.242921    0.084512
H    -1.907129    1.310644   -0.173530    0.052018   -0.158185   -1.813345
H     2.338608    1.040183   -0.032851   -0.007549    0.026352    0.313612
H    -0.080594   -2.162817   -0.641747   -0.029722   -0.224345    0.124324
