13
* (null), Energy   -1000.0000000
C     1.372793    0.529851   -0.015036    0.000000    0.000000    0.000000
C     1.302724   -0.794210    0.095800    0.000000    0.000000    0.000000
N    -0.008640   -1.463020    0.118827    0.000000    0.000000    0.000000
C    -1.330555   -0.610659    0.008144    0.000000    0.000000    0.000000
N    -1.080705    0.709657   -0.097399    0.000000    0.000000    0.000000
C     0.172593    1.398876   -0.122183    0.000000    0.000000    0.000000
O    -2.344242   -1.219751    0.031049    0.000000    0.000000    0.000000
O     0.201841    2.589695   -0.223265    0.000000    0.000000    0.000000
H     2.156844   -1.471062    0.176152    0.000000    0.000000    0.000000
H    -0.124198   -2.019917    0.984598    0.000000    0.000000    0.000000
H    -1.907129    1.310644   -0.173530    0.000000    0.000000    0.000000
H     2.338608    1.040183   -0.032851    0.000000    0.000000    0.000000
H    -0.080594   -2.162817   -0.641747    0.000000    0.000000    0.000000
13
* Frequency(3)    0.0000
C     1.372793    0.529851   -0.015036    0.000000    0.000000    0.000000
C     1.302724   -0.794210    0.095800    0.000000    0.000000    0.000000
N    -0.008640   -1.463020    0.118827    0.000000    0.000000    0.000000
C    -1.330555   -0.610659    0.008144    0.000000    0.000000    0.000000
N    -1.080705    0.709657   -0.097399    0.000000    0.000000    0.000000
C     0.172593    1.398876   -0.122183    0.000000    0.000000    0.000000
O    -2.344242   -1.219751    0.031049    0.000000    0.000000    0.000000
O     0.201841    2.589695   -0.223265    0.000000    0.000000    0.000000
H     2.156844   -1.471062    0.176152    0.000000    0.000000    0.000000
H    -0.124198   -2.019917    0.984598    0.000000    0.000000    0.000000
H    -1.907129    1.310644   -0.173530    0.000000    0.000000    0.000000
H     2.338608    1.040183   -0.032851    0.000000    0.000000    0.000000
H    -0.080594   -2.162817   -0.641747    0.000000    0.000000    0.000000
13
* Frequency(3)    0.0000
C     1.372793    0.529851   -0.015036    0.000000    0.000000    0.000000
C     1.302724   -0.794210    0.095800    0.000000    0.000000    0.000000
N    -0.008640   -1.463020    0.118827    0.000000    0.000000    0.000000
C    -1.330555   -0.610659    0.008144    0.000000    0.000000    0.000000
N    -1.080705    0.709657   -0.097399    0.000000    0.000000    0.000000
C     0.172593    1.398876   -0.122183    0.000000    0.000000    0.000000
O    -2.344242   -1.219751    0.031049    0.000000    0.000000    0.000000
O     0.201841    2.589695   -0.223265    0.000000    0.000000    0.000000
H     2.156844   -1.471062    0.176152    0.000000    0.000000    0.000000
H    -0.124198   -2.019917    0.984598    0.000000    0.000000    0.000000
H    -1.907129    1.310644   -0.173530    0.000000    0.000000    0.000000
H     2.338608    1.040183   -0.032851    0.000000    0.000000    0.000000
H    -0.080594   -2.162817   -0.641747    0.000000    0.000000    0.000000
13
* Frequency(3)    0.0000
C     1.372793    0.529851   -0.015036    0.000000    0.000000    0.000000
C     1.302724   -0.794210    0.095800    0.000000    0.000000    0.000000
N    -0.008640   -1.463020    0.118827    0.000000    0.000000    0.000000
C    -1.330555   -0.610659    0.008144    0.000000    0.000000    0.000000
N    -1.080705    0.709657   -0.097399    0.000000    0.000000    0.000000
C     0.172593    1.398876   -0.122183    0.000000    0.000000    0.000000
O    -2.344242   -1.219751    0.031049    0.000000    0.000000    0.000000
O     0.201841    2.589695   -0.223265    0.000000    0.000000    0.000000
H     2.156844   -1.471062    0.176152    0.000000    0.000000    0.000000
H    -0.124198   -2.019917    0.984598    0.000000    0.000000    0.000000
H    -1.907129    1.310644   -0.173530    0.000000    0.000000    0.000000
H     2.338608    1.040183   -0.032851    0.000000    0.000000    0.000000
H    -0.080594   -2.162817   -0.641747    0.000000    0.000000    0.000000
13
* Frequency(3)    0.0000
C     1.372793    0.529851   -0.015036    0.000000    0.000000    0.000000
C     1.302724   -0.794210    0.095800    0.000000    0.000000    0.000000
N    -0.008640   -1.463020    0.118827    0.000000    0.000000    0.000000
C    -1.330555   -0.610659    0.008144    0.000000    0.000000    0.000000
N    -1.080705    0.709657   -0.097399    0.000000    0.000000    0.000000
C     0.172593    1.398876   -0.122183    0.000000    0.000000    0.000000
O    -2.344242   -1.219751    0.031049    0.000000    0.000000    0.000000
O     0.201841    2.589695   -0.223265    0.000000    0.000000    0.000000
H     2.156844   -1.471062    0.176152    0.000000    0.000000    0.000000
H    -0.124198   -2.019917    0.984598    0.000000    0.000000    0.000000
H    -1.907129    1.310644   -0.173530    0.000000    0.000000    0.000000
H     2.338608    1.040183   -0.032851    0.000000    0.000000    0.000000
H    -0.080594   -2.162817   -0.641747    0.000000    0.000000    0.000000
13
* Frequency(3)    0.0000
C     1.372793    0.529851   -0.015036    0.000000    0.000000    0.000000
C     1.302724   -0.794210    0.095800    0.000000    0.000000    0.000000
N    -0.008640   -1.463020    0.118827    0.000000    0.000000    0.000000
C    -1.330555   -0.610659    0.008144    0.000000    0.000000    0.000000
N    -1.080705    0.709657   -0.097399    0.000000    0.000000    0.000000
C     0.172593    1.398876   -0.122183    0.000000    0.000000    0.000000
O    -2.344242   -1.219751    0.031049    0.000000    0.000000    0.000000
O     0.201841    2.589695   -0.223265    0.000000    0.000000    0.000000
H     2.156844   -1.471062    0.176152    0.000000    0.000000    0.000000
H    -0.124198   -2.019917    0.984598    0.000000    0.000000    0.000000
H    -1.907129    1.310644   -0.173530    0.000000    0.000000    0.000000
H     2.338608    1.040183   -0.032851    0.000000    0.000000    0.000000
H    -0.080594   -2.162817   -0.641747    0.000000    0.000000    0.000000
13
* Frequency(3)    0.0000
C     1.372793    0.529851   -0.015036    0.000000    0.000000    0.000000
C     1.302724   -0.794210    0.095800    0.000000    0.000000    0.000000
N    -0.008640   -1.463020    0.118827    0.000000    0.000000    0.000000
C    -1.330555   -0.610659    0.008144    0.000000    0.000000    0.000000
N    -1.080705    0.709657   -0.097399    0.000000    0.000000    0.000000
C     0.172593    1.398876   -0.122183    0.000000    0.000000    0.000000
O    -2.344242   -1.219751    0.031049    0.000000    0.000000    0.000000
O     0.201841    2.589695   -0.223265    0.000000    0.000000    0.000000
H     2.156844   -1.471062    0.176152    0.000000    0.000000    0.000000
H    -0.124198   -2.019917    0.984598    0.000000    0.000000    0.000000
H    -1.907129    1.310644   -0.173530    0.000000    0.000000    0.000000
H     2.338608    1.040183   -0.032851    0.000000    0.000000    0.000000
H    -0.080594   -2.162817   -0.641747    0.000000    0.000000    0.000000
13
* Frequency(3)    0.0000
C     1.372793    0.529851   -0.015036    0.000000    0.000000    0.000000
C     1.302724   -0.794210    0.095800    0.000000    0.000000    0.000000
N    -0.008640   -1.463020    0.118827    0.000000    0.000000    0.000000
C    -1.330555   -0.610659    0.008144    0.000000    0.000000    0.000000
N    -1.080705    0.709657   -0.097399    0.000000    0.000000    0.000000
C     0.172593    1.398876   -0.122183    0.000000    0.000000    0.000000
O    -2.344242   -1.219751    0.031049    0.000000    0.000000    0.000000
O     0.201841    2.589695   -0.223265    0.000000    0.000000    0.000000
H     2.156844   -1.471062    0.176152    0.000000    0.000000    0.000000
H    -0.124198   -2.019917    0.984598    0.000000    0.000000    0.000000
H    -1.907129    1.310644   -0.173530    0.000000    0.000000    0.000000
H     2.338608    1.040183   -0.032851    0.000000    0.000000    0.000000
H    -0.080594   -2.162817   -0.641747    0.000000    0.000000    0.000000
13
* Frequency(3)    0.0000
C     1.372793    0.529851   -0.015036    0.000000    0.000000    0.000000
C     1.302724   -0.794210    0.095800    0.000000    0.000000    0.000000
N    -0.008640   -1.463020    0.118827    0.000000    0.000000    0.000000
C    -1.330555   -0.610659    0.008144    0.000000    0.000000    0.000000
N    -1.080705    0.709657   -0.097399    0.000000    0.000000    0.000000
C     0.172593    1.398876   -0.122183    0.000000    0.000000    0.000000
O    -2.344242   -1.219751    0.031049    0.000000    0.000000    0.000000
O     0.201841    2.589695   -0.223265    0.000000    0.000000    0.000000
H     2.156844   -1.471062    0.176152    0.000000    0.000000    0.000000
H    -0.124198   -2.019917    0.984598    0.000000    0.000000    0.000000
H    -1.907129    1.310644   -0.173530    0.000000    0.000000    0.000000
H     2.338608    1.040183   -0.032851    0.000000    0.000000    0.000000
H    -0.080594   -2.162817   -0.641747    0.000000    0.000000    0.000000
13
* Frequency(3)    0.0000
C     1.372793    0.529851   -0.015036    0.000000    0.000000    0.000000
C     1.302724   -0.794210    0.095800    0.000000    0.000000    0.000000
N    -0.008640   -1.463020    0.118827    0.000000    0.000000    0.000000
C    -1.330555   -0.610659    0.008144    0.000000    0.000000    0.000000
N    -1.080705    0.709657   -0.097399    0.000000    0.000000    0.000000
C     0.172593    1.398876   -0.122183    0.000000    0.000000    0.000000
O    -2.344242   -1.219751    0.031049    0.000000    0.000000    0.000000
O     0.201841    2.589695   -0.223265    0.000000    0.000000    0.000000
H     2.156844   -1.471062    0.176152    0.000000    0.000000    0.000000
H    -0.124198   -2.019917    0.984598    0.000000    0.000000    0.000000
H    -1.907129    1.310644   -0.173530    0.000000    0.000000    0.000000
H     2.338608    1.040183   -0.032851    0.000000    0.000000    0.000000
H    -0.080594   -2.162817   -0.641747    0.000000    0.000000    0.000000
13
* Frequency(3)    0.0000
C     1.372793    0.529851   -0.015036    0.000000    0.000000    0.000000
C     1.302724   -0.794210    0.095800    0.000000    0.000000    0.000000
N    -0.008640   -1.463020    0.118827    0.000000    0.000000    0.000000
C    -1.330555   -0.610659    0.008144    0.000000    0.000000    0.000000
N    -1.080705    0.709657   -0.097399    0.000000    0.000000    0.000000
C     0.172593    1.398876   -0.122183    0.000000    0.000000    0.000000
O    -2.344242   -1.219751    0.031049    0.000000    0.000000    0.000000
O     0.201841    2.589695   -0.223265    0.000000    0.000000    0.000000
H     2.156844   -1.471062    0.176152    0.000000    0.000000    0.000000
H    -0.124198   -2.019917    0.984598    0.000000    0.000000    0.000000
H    -1.907129    1.310644   -0.173530    0.000000    0.000000    0.000000
H     2.338608    1.040183   -0.032851    0.000000    0.000000    0.000000
H    -0.080594   -2.162817   -0.641747    0.000000    0.000000    0.000000
13
* Frequency(3)    0.0000
C     1.372793    0.529851   -0.015036    0.000000    0.000000    0.000000
C     1.302724   -0.794210    0.095800    0.000000    0.000000    0.000000
N    -0.008640   -1.463020    0.118827    0.000000    0.000000    0.000000
C    -1.330555   -0.610659    0.008144    0.000000    0.000000    0.000000
N    -1.080705    0.709657   -0.097399    0.000000    0.000000    0.000000
C     0.172593    1.398876   -0.122183    0.000000    0.000000    0.000000
O    -2.344242   -1.219751    0.031049    0.000000    0.000000    0.000000
O     0.201841    2.589695   -0.223265    0.000000    0.000000    0.000000
H     2.156844   -1.471062    0.176152    0.000000    0.000000    0.000000
H    -0.124198   -2.019917    0.984598    0.000000    0.000000    0.000000
H    -1.907129    1.310644   -0.173530    0.000000    0.000000    0.000000
H     2.338608    1.040183   -0.032851    0.000000    0.000000    0.000000
H    -0.080594   -2.162817   -0.641747    0.000000    0.000000    0.000000
13
* Frequency(3)    0.0000
C     1.372793    0.529851   -0.015036    0.000000    0.000000    0.000000
C     1.302724   -0.794210    0.095800    0.000000    0.000000    0.000000
N    -0.008640   -1.463020    0.118827    0.000000    0.000000    0.000000
C    -1.330555   -0.610659    0.008144    0.000000    0.000000    0.000000
N    -1.080705    0.709657   -0.097399    0.000000    0.000000    0.000000
C     0.172593    1.398876   -0.122183    0.000000    0.000000    0.000000
O    -2.344242   -1.219751    0.031049    0.000000    0.000000    0.000000
O     0.201841    2.589695   -0.223265    0.000000    0.000000    0.000000
H     2.156844   -1.471062    0.176152    0.000000    0.000000    0.000000
H    -0.124198   -2.019917    0.984598    0.000000    0.000000    0.000000
H    -1.907129    1.310644   -0.173530    0.000000    0.000000    0.000000
H     2.338608    1.040183   -0.032851    0.000000    0.000000    0.000000
H    -0.080594   -2.162817   -0.641747    0.000000    0.000000    0.000000
13
* Frequency(3)    0.0000
C     1.372793    0.529851   -0.015036    0.000000    0.000000    0.000000
C     1.302724   -0.794210    0.095800    0.000000    0.000000    0.000000
N    -0.008640   -1.463020    0.118827    0.000000    0.000000    0.000000
C    -1.330555   -0.610659    0.008144    0.000000    0.000000    0.000000
N    -1.080705    0.709657   -0.097399    0.000000    0.000000    0.000000
C     0.172593    1.398876   -0.122183    0.000000    0.000000    0.000000
O    -2.344242   -1.219751    0.031049    0.000000    0.000000    0.000000
O     0.201841    2.589695   -0.223265    0.000000    0.000000    0.000000
H     2.156844   -1.471062    0.176152    0.000000    0.000000    0.000000
H    -0.124198   -2.019917    0.984598    0.000000    0.000000    0.000000
H    -1.907129    1.310644   -0.173530    0.000000    0.000000    0.000000
H     2.338608    1.040183   -0.032851    0.000000    0.000000    0.000000
H    -0.080594   -2.162817   -0.641747    0.000000    0.000000    0.000000
13
* Frequency(3)    0.0000
C     1.372793    0.529851   -0.015036    0.000000    0.000000    0.000000
C     1.302724   -0.794210    0.095800    0.000000    0.000000    0.000000
N    -0.008640   -1.463020    0.118827    0.000000    0.000000    0.000000
C    -1.330555   -0.610659    0.008144    0.000000    0.000000    0.000000
N    -1.080705    0.709657   -0.097399    0.000000    0.000000    0.000000
C     0.172593    1.398876   -0.122183    0.000000    0.000000    0.000000
O    -2.344242   -1.219751    0.031049    0.000000    0.000000    0.000000
O     0.201841    2.589695   -0.223265    0.000000    0.000000    0.000000
H     2.156844   -1.471062    0.176152    0.000000    0.000000    0.000000
H    -0.124198   -2.019917    0.984598    0.000000    0.000000    0.000000
H    -1.907129    1.310644   -0.173530    0.000000    0.000000    0.000000
H     2.338608    1.040183   -0.032851    0.000000    0.000000    0.000000
H    -0.080594   -2.162817   -0.641747    0.000000    0.000000    0.000000
13
* Frequency(3)    0.0000
C     1.372793    0.529851   -0.015036    0.000000    0.000000    0.000000
C     1.302724   -0.794210    0.095800    0.000000    0.000000    0.000000
N    -0.008640   -1.463020    0.118827    0.000000    0.000000    0.000000
C    -1.330555   -0.610659    0.008144    0.000000    0.000000    0.000000
N    -1.080705    0.709657   -0.097399    0.000000    0.000000    0.000000
C     0.172593    1.398876   -0.122183    0.000000    0.000000    0.000000
O    -2.344242   -1.219751    0.031049    0.000000    0.000000    0.000000
O     0.201841    2.589695   -0.223265    0.000000    0.000000    0.000000
H     2.156844   -1.471062    0.176152    0.000000    0.000000    0.000000
H    -0.124198   -2.019917    0.984598    0.000000    0.000000    0.000000
H    -1.907129    1.310644   -0.173530    0.000000    0.000000    0.000000
H     2.338608    1.040183   -0.032851    0.000000    0.000000    0.000000
H    -0.080594   -2.162817   -0.641747    0.000000    0.000000    0.000000
13
* Frequency(3)    0.0000
C     1.372793    0.529851   -0.015036    0.000000    0.000000    0.000000
C     1.302724   -0.794210    0.095800    0.000000    0.000000    0.000000
N    -0.008640   -1.463020    0.118827    0.000000    0.000000    0.000000
C    -1.330555   -0.610659    0.008144    0.000000    0.000000    0.000000
N    -1.080705    0.709657   -0.097399    0.000000    0.000000    0.000000
C     0.172593    1.398876   -0.122183    0.000000    0.000000    0.000000
O    -2.344242   -1.219751    0.031049    0.000000    0.000000    0.000000
O     0.201841    2.589695   -0.223265    0.000000    0.000000    0.000000
H     2.156844   -1.471062    0.176152    0.000000    0.000000    0.000000
H    -0.124198   -2.019917    0.984598    0.000000    0.000000    0.000000
H    -1.907129    1.310644   -0.173530    0.000000    0.000000    0.000000
H     2.338608    1.040183   -0.032851    0.000000    0.000000    0.000000
H    -0.080594   -2.162817   -0.641747    0.000000    0.000000    0.000000
13
* Frequency(3)    0.0000
C     1.372793    0.529851   -0.015036    0.000000    0.000000    0.000000
C     1.302724   -0.794210    0.095800    0.000000    0.000000    0.000000
N    -0.008640   -1.463020    0.118827    0.000000    0.000000    0.000000
C    -1.330555   -0.610659    0.008144    0.000000    0.000000    0.000000
N    -1.080705    0.709657   -0.097399    0.000000    0.000000    0.000000
C     0.172593    1.398876   -0.122183    0.000000    0.000000    0.000000
O    -2.344242   -1.219751    0.031049    0.000000    0.000000    0.000000
O     0.201841    2.589695   -0.223265    0.000000    0.000000    0.000000
H     2.156844   -1.471062    0.176152    0.000000    0.000000    0.000000
H    -0.124198   -2.019917    0.984598    0.000000    0.000000    0.000000
H    -1.907129    1.310644   -0.173530    0.000000    0.000000    0.000000
H     2.338608    1.040183   -0.032851    0.000000    0.000000    0.000000
H    -0.080594   -2.162817   -0.641747    0.000000    0.000000    0.000000
13
* Frequency(3)    0.0000
C     1.372793    0.529851   -0.015036    0.000000    0.000000    0.000000
C     1.302724   -0.794210    0.095800    0.000000    0.000000    0.000000
N    -0.008640   -1.463020    0.118827    0.000000    0.000000    0.000000
C    -1.330555   -0.610659    0.008144    0.000000    0.000000    0.000000
N    -1.080705    0.709657   -0.097399    0.000000    0.000000    0.000000
C     0.172593    1.398876   -0.122183    0.000000    0.000000    0.000000
O    -2.344242   -1.219751    0.031049    0.000000    0.000000    0.000000
O     0.201841    2.589695   -0.223265    0.000000    0.000000    0.000000
H     2.156844   -1.471062    0.176152    0.000000    0.000000    0.000000
H    -0.124198   -2.019917    0.984598    0.000000    0.000000    0.000000
H    -1.907129    1.310644   -0.173530    0.000000    0.000000    0.000000
H     2.338608    1.040183   -0.032851    0.000000    0.000000    0.000000
H    -0.080594   -2.162817   -0.641747    0.000000    0.000000    0.000000
13
* Frequency(3)    0.0000
C     1.372793    0.529851   -0.015036    0.000000    0.000000    0.000000
C     1.302724   -0.794210    0.095800    0.000000    0.000000    0.000000
N    -0.008640   -1.463020    0.118827    0.000000    0.000000    0.000000
C    -1.330555   -0.610659    0.008144    0.000000    0.000000    0.000000
N    -1.080705    0.709657   -0.097399    0.000000    0.000000    0.000000
C     0.172593    1.398876   -0.122183    0.000000    0.000000    0.000000
O    -2.344242   -1.219751    0.031049    0.000000    0.000000    0.000000
O     0.201841    2.589695   -0.223265    0.000000    0.000000    0.000000
H     2.156844   -1.471062    0.176152    0.000000    0.000000    0.000000
H    -0.124198   -2.019917    0.984598    0.000000    0.000000    0.000000
H    -1.907129    1.310644   -0.173530    0.000000    0.000000    0.000000
H     2.338608    1.040183   -0.032851    0.000000    0.000000    0.000000
H    -0.080594   -2.162817   -0.641747    0.000000    0.000000    0.000000
