13
* (null), Energy   -1000.0000000
C     1.372793    0.529851   -0.015036    0.002276   -0.050977    0.004394
C     1.302724   -0.794210    0.095800    0.010011    0.030988   -0.002286
N    -0.008640   -1.463020    0.118827   -0.038806   -0.134744    0.010687
C    -1.330555   -0.610659    0.008144    0.006242   -0.012089    0.001278
N    -1.080705    0.709657   -0.097399    0.000040    0.001971   -0.000174
C     0.172593    1.398876   -0.122183    0.001389   -0.000098    0.000064
O    -2.344242   -1.219751    0.031049   -0.001438   -0.001886    0.000133
O     0.201841    2.589695   -0.223265   -0.001902    0.005825   -0.000552
H     2.156844   -1.471062    0.176152   -0.010054    0.006605   -0.000866
H    -0.124198   -2.019917    0.984598    0.179288    1.147122    0.799901
H    -1.907129    1.310644   -0.173530   -0.001804    0.001033   -0.000215
H     2.338608    1.040183   -0.032851   -0.040626    0.020625   -0.002945
H    -0.080594   -2.162817   -0.641747    0.227540    0.990470   -0.976414
13
* Frequency(30) 1572.4490
C     1.373051    0.524058   -0.014537    0.002276   -0.050977    0.004394
C     1.303862   -0.790688    0.095540    0.010011    0.030988   -0.002286
N    -0.013050   -1.478333    0.120042   -0.038806   -0.134744    0.010687
C    -1.329846   -0.612033    0.008290    0.006242   -0.012089    0.001278
N    -1.080700    0.709881   -0.097418    0.000040    0.001971   -0.000174
C     0.172751    1.398865   -0.122176    0.001389   -0.000098    0.000064
O    -2.344405   -1.219965    0.031064   -0.001438   -0.001886    0.000133
O     0.201625    2.590357   -0.223327   -0.001902    0.005825   -0.000552
H     2.155701   -1.470311    0.176053   -0.010054    0.006605   -0.000866
H    -0.103822   -1.889552    1.075503    0.179288    1.147122    0.799901
H    -1.907334    1.310761   -0.173554   -0.001804    0.001033   -0.000215
H     2.333991    1.042527   -0.033186   -0.040626    0.020625   -0.002945
H    -0.054735   -2.050255   -0.752712    0.227540    0.990470   -0.976414
13
* Frequency(30) 1572.4490
C     1.373282    0.518892   -0.014092    0.002276   -0.050977    0.004394
C     1.304876   -0.787548    0.095309    0.010011    0.030988   -0.002286
N    -0.016982   -1.491987    0.121125   -0.038806   -0.134744    0.010687
C    -1.329213   -0.613258    0.008419    0.006242   -0.012089    0.001278
N    -1.080696    0.710081   -0.097436    0.000040    0.001971   -0.000174
C     0.172892    1.398855   -0.122169    0.001389   -0.000098    0.000064
O    -2.344551   -1.220156    0.031077   -0.001438   -0.001886    0.000133
O     0.201432    2.590948   -0.223383   -0.001902    0.005825   -0.000552
H     2.154682   -1.469642    0.175966   -0.010054    0.006605   -0.000866
H    -0.085655   -1.773315    1.156557    0.179288    1.147122    0.799901
H    -1.907517    1.310866   -0.173576   -0.001804    0.001033   -0.000215
H     2.329874    1.044616   -0.033484   -0.040626    0.020625   -0.002945
H    -0.031678   -1.949891   -0.851651    0.227540    0.990470   -0.976414
13
* Frequency(30) 1572.4490
C     1.373460    0.514915   -0.013749    0.002276   -0.050977    0.004394
C     1.305657   -0.785130    0.095130    0.010011    0.030988   -0.002286
N    -0.020010   -1.502502    0.121959   -0.038806   -0.134744    0.010687
C    -1.328726   -0.614201    0.008519    0.006242   -0.012089    0.001278
N    -1.080693    0.710235   -0.097450    0.000040    0.001971   -0.000174
C     0.173000    1.398847   -0.122164    0.001389   -0.000098    0.000064
O    -2.344663   -1.220303    0.031088   -0.001438   -0.001886    0.000133
O     0.201284    2.591402   -0.223426   -0.001902    0.005825   -0.000552
H     2.153898   -1.469126    0.175898   -0.010054    0.006605   -0.000866
H    -0.071665   -1.683800    1.218976    0.179288    1.147122    0.799901
H    -1.907657    1.310946   -0.173593   -0.001804    0.001033   -0.000215
H     2.326704    1.046226   -0.033714   -0.040626    0.020625   -0.002945
H    -0.013922   -1.872601   -0.927845    0.227540    0.990470   -0.976414
13
* Frequency(30) 1572.4490
C     1.373565    0.512555   -0.013545    0.002276   -0.050977    0.004394
C     1.306121   -0.783696    0.095025    0.010011    0.030988   -0.002286
N    -0.021806   -1.508738    0.122453   -0.038806   -0.134744    0.010687
C    -1.328437   -0.614761    0.008578    0.006242   -0.012089    0.001278
N    -1.080691    0.710326   -0.097458    0.000040    0.001971   -0.000174
C     0.173065    1.398843   -0.122161    0.001389   -0.000098    0.000064
O    -2.344730   -1.220391    0.031094   -0.001438   -0.001886    0.000133
O     0.201196    2.591672   -0.223452   -0.001902    0.005825   -0.000552
H     2.153432   -1.468821    0.175858   -0.010054    0.006605   -0.000866
H    -0.063367   -1.630710    1.255997    0.179288    1.147122    0.799901
H    -1.907741    1.310994   -0.173603   -0.001804    0.001033   -0.000215
H     2.324823    1.047180   -0.033851   -0.040626    0.020625   -0.002945
H    -0.003391   -1.826760   -0.973035    0.227540    0.990470   -0.976414
13
* Frequency(30) 1572.4490
C     1.373587    0.512070   -0.013503    0.002276   -0.050977    0.004394
C     1.306216   -0.783401    0.095003    0.010011    0.030988   -0.002286
N    -0.022176   -1.510020    0.122555   -0.038806   -0.134744    0.010687
C    -1.328378   -0.614876    0.008590    0.006242   -0.012089    0.001278
N    -1.080691    0.710345   -0.097460    0.000040    0.001971   -0.000174
C     0.173078    1.398842   -0.122161    0.001389   -0.000098    0.000064
O    -2.344744   -1.220409    0.031095   -0.001438   -0.001886    0.000133
O     0.201178    2.591727   -0.223457   -0.001902    0.005825   -0.000552
H     2.153337   -1.468758    0.175850   -0.010054    0.006605   -0.000866
H    -0.061661   -1.619795    1.263607    0.179288    1.147122    0.799901
H    -1.907758    1.311004   -0.173605   -0.001804    0.001033   -0.000215
H     2.324437    1.047377   -0.033879   -0.040626    0.020625   -0.002945
H    -0.001226   -1.817337   -0.982325    0.227540    0.990470   -0.976414
13
* Frequency(30) 1572.4490
C     1.373522    0.513512   -0.013628    0.002276   -0.050977    0.004394
C     1.305933   -0.784277    0.095068    0.010011    0.030988   -0.002286
N    -0.021078   -1.506209    0.122253   -0.038806   -0.134744    0.010687
C    -1.328555   -0.614534    0.008554    0.006242   -0.012089    0.001278
N    -1.080692    0.710289   -0.097455    0.000040    0.001971   -0.000174
C     0.173039    1.398844   -0.122162    0.001389   -0.000098    0.000064
O    -2.344703   -1.220355    0.031091   -0.001438   -0.001886    0.000133
O     0.201232    2.591562   -0.223442   -0.001902    0.005825   -0.000552
H     2.153621   -1.468945    0.175874   -0.010054    0.006605   -0.000866
H    -0.066732   -1.652240    1.240983    0.179288    1.147122    0.799901
H    -1.907707    1.310975   -0.173599   -0.001804    0.001033   -0.000215
H     2.325586    1.046793   -0.033795   -0.040626    0.020625   -0.002945
H    -0.007662   -1.845351   -0.954708    0.227540    0.990470   -0.976414
13
* Frequency(30) 1572.4490
C     1.373379    0.516724   -0.013905    0.002276   -0.050977    0.004394
C     1.305302   -0.786230    0.095212    0.010011    0.030988   -0.002286
N    -0.018633   -1.497717    0.121579   -0.038806   -0.134744    0.010687
C    -1.328948   -0.613772    0.008474    0.006242   -0.012089    0.001278
N    -1.080695    0.710165   -0.097444    0.000040    0.001971   -0.000174
C     0.172951    1.398851   -0.122166    0.001389   -0.000098    0.000064
O    -2.344612   -1.220236    0.031083   -0.001438   -0.001886    0.000133
O     0.201352    2.591195   -0.223407   -0.001902    0.005825   -0.000552
H     2.154255   -1.469361    0.175929   -0.010054    0.006605   -0.000866
H    -0.078030   -1.724529    1.190575    0.179288    1.147122    0.799901
H    -1.907593    1.310910   -0.173585   -0.001804    0.001033   -0.000215
H     2.328146    1.045494   -0.033610   -0.040626    0.020625   -0.002945
H    -0.022001   -1.907768   -0.893177    0.227540    0.990470   -0.976414
13
* Frequency(30) 1572.4490
C     1.373172    0.521359   -0.014304    0.002276   -0.050977    0.004394
C     1.304392   -0.789047    0.095419    0.010011    0.030988   -0.002286
N    -0.015104   -1.485466    0.120608   -0.038806   -0.134744    0.010687
C    -1.329516   -0.612673    0.008357    0.006242   -0.012089    0.001278
N    -1.080698    0.709985   -0.097428    0.000040    0.001971   -0.000174
C     0.172825    1.398859   -0.122172    0.001389   -0.000098    0.000064
O    -2.344481   -1.220065    0.031071   -0.001438   -0.001886    0.000133
O     0.201524    2.590666   -0.223357   -0.001902    0.005825   -0.000552
H     2.155169   -1.469961    0.176008   -0.010054    0.006605   -0.000866
H    -0.094331   -1.828827    1.117847    0.179288    1.147122    0.799901
H    -1.907429    1.310816   -0.173566   -0.001804    0.001033   -0.000215
H     2.331840    1.043618   -0.033342   -0.040626    0.020625   -0.002945
H    -0.042690   -1.997823   -0.804400    0.227540    0.990470   -0.976414
13
* Frequency(30) 1572.4490
C     1.372924    0.526914   -0.014783    0.002276   -0.050977    0.004394
C     1.303301   -0.792424    0.095669    0.010011    0.030988   -0.002286
N    -0.010876   -1.470783    0.119443   -0.038806   -0.134744    0.010687
C    -1.330196   -0.611356    0.008218    0.006242   -0.012089    0.001278
N    -1.080703    0.709771   -0.097409    0.000040    0.001971   -0.000174
C     0.172673    1.398870   -0.122179    0.001389   -0.000098    0.000064
O    -2.344325   -1.219860    0.031056   -0.001438   -0.001886    0.000133
O     0.201732    2.590031   -0.223297   -0.001902    0.005825   -0.000552
H     2.156264   -1.470681    0.176102   -0.010054    0.006605   -0.000866
H    -0.113869   -1.953833    1.030679    0.179288    1.147122    0.799901
H    -1.907233    1.310703   -0.173542   -0.001804    0.001033   -0.000215
H     2.336267    1.041371   -0.033021   -0.040626    0.020625   -0.002945
H    -0.067485   -2.105758   -0.697997    0.227540    0.990470   -0.976414
13
* Frequency(30) 1572.4490
C     1.372662    0.532788   -0.015289    0.002276   -0.050977    0.004394
C     1.302147   -0.795995    0.095932    0.010011    0.030988   -0.002286
N    -0.006405   -1.455258    0.118212   -0.038806   -0.134744    0.010687
C    -1.330915   -0.609963    0.008071    0.006242   -0.012089    0.001278
N    -1.080707    0.709543   -0.097389    0.000040    0.001971   -0.000174
C     0.172513    1.398881   -0.122186    0.001389   -0.000098    0.000064
O    -2.344159   -1.219642    0.031041   -0.001438   -0.001886    0.000133
O     0.201951    2.589360   -0.223233   -0.001902    0.005825   -0.000552
H     2.157423   -1.471442    0.176202   -0.010054    0.006605   -0.000866
H    -0.134526   -2.086000    0.938517    0.179288    1.147122    0.799901
H    -1.907025    1.310584   -0.173517   -0.001804    0.001033   -0.000215
H     2.340948    1.038995   -0.032682   -0.040626    0.020625   -0.002945
H    -0.093702   -2.219876   -0.585498    0.227540    0.990470   -0.976414
13
* Frequency(30) 1572.4490
C     1.372414    0.538343   -0.015768    0.002276   -0.050977    0.004394
C     1.301056   -0.799372    0.096181    0.010011    0.030988   -0.002286
N    -0.002176   -1.440574    0.117047   -0.038806   -0.134744    0.010687
C    -1.331595   -0.608645    0.007931    0.006242   -0.012089    0.001278
N    -1.080712    0.709329   -0.097370    0.000040    0.001971   -0.000174
C     0.172362    1.398892   -0.122193    0.001389   -0.000098    0.000064
O    -2.344002   -1.219437    0.031027   -0.001438   -0.001886    0.000133
O     0.202158    2.588725   -0.223173   -0.001902    0.005825   -0.000552
H     2.158518   -1.472162    0.176296   -0.010054    0.006605   -0.000866
H    -0.154064   -2.211006    0.851349    0.179288    1.147122    0.799901
H    -1.906828    1.310472   -0.173494   -0.001804    0.001033   -0.000215
H     2.345375    1.036747   -0.032361   -0.040626    0.020625   -0.002945
H    -0.118498   -2.327811   -0.479095    0.227540    0.990470   -0.976414
13
* Frequency(30) 1572.4490
C     1.372207    0.542978   -0.016168    0.002276   -0.050977    0.004394
C     1.300146   -0.802189    0.096389    0.010011    0.030988   -0.002286
N     0.001352   -1.428323    0.116075   -0.038806   -0.134744    0.010687
C    -1.332163   -0.607546    0.007815    0.006242   -0.012089    0.001278
N    -1.080715    0.709149   -0.097354    0.000040    0.001971   -0.000174
C     0.172236    1.398901   -0.122199    0.001389   -0.000098    0.000064
O    -2.343872   -1.219265    0.031015   -0.001438   -0.001886    0.000133
O     0.202331    2.588195   -0.223123   -0.001902    0.005825   -0.000552
H     2.159433   -1.472763    0.176375   -0.010054    0.006605   -0.000866
H    -0.170365   -2.315305    0.778621    0.179288    1.147122    0.799901
H    -1.906664    1.310378   -0.173474   -0.001804    0.001033   -0.000215
H     2.349069    1.034872   -0.032093   -0.040626    0.020625   -0.002945
H    -0.139186   -2.417866   -0.390317    0.227540    0.990470   -0.976414
13
* Frequency(30) 1572.4490
C     1.372063    0.546190   -0.016444    0.002276   -0.050977    0.004394
C     1.299515   -0.804142    0.096533    0.010011    0.030988   -0.002286
N     0.003798   -1.419832    0.115402   -0.038806   -0.134744    0.010687
C    -1.332556   -0.606784    0.007735    0.006242   -0.012089    0.001278
N    -1.080718    0.709025   -0.097343    0.000040    0.001971   -0.000174
C     0.172148    1.398907   -0.122203    0.001389   -0.000098    0.000064
O    -2.343781   -1.219147    0.031006   -0.001438   -0.001886    0.000133
O     0.202451    2.587828   -0.223088   -0.001902    0.005825   -0.000552
H     2.160066   -1.473179    0.176429   -0.010054    0.006605   -0.000866
H    -0.181663   -2.387593    0.728213    0.179288    1.147122    0.799901
H    -1.906551    1.310313   -0.173461   -0.001804    0.001033   -0.000215
H     2.351629    1.033572   -0.031908   -0.040626    0.020625   -0.002945
H    -0.153525   -2.480283   -0.328786    0.227540    0.990470   -0.976414
13
* Frequency(30) 1572.4490
C     1.371999    0.547632   -0.016569    0.002276   -0.050977    0.004394
C     1.299232   -0.805018    0.096598    0.010011    0.030988   -0.002286
N     0.004895   -1.416021    0.115099   -0.038806   -0.134744    0.010687
C    -1.332733   -0.606442    0.007699    0.006242   -0.012089    0.001278
N    -1.080719    0.708969   -0.097338    0.000040    0.001971   -0.000174
C     0.172109    1.398910   -0.122205    0.001389   -0.000098    0.000064
O    -2.343740   -1.219093    0.031002   -0.001438   -0.001886    0.000133
O     0.202505    2.587663   -0.223072   -0.001902    0.005825   -0.000552
H     2.160351   -1.473366    0.176454   -0.010054    0.006605   -0.000866
H    -0.186734   -2.420038    0.705589    0.179288    1.147122    0.799901
H    -1.906500    1.310283   -0.173455   -0.001804    0.001033   -0.000215
H     2.352778    1.032989   -0.031824   -0.040626    0.020625   -0.002945
H    -0.159961   -2.508297   -0.301170    0.227540    0.990470   -0.976414
13
* Frequency(30) 1572.4490
C     1.372021    0.547147   -0.016527    0.002276   -0.050977    0.004394
C     1.299327   -0.804724    0.096576    0.010011    0.030988   -0.002286
N     0.004526   -1.417303    0.115201   -0.038806   -0.134744    0.010687
C    -1.332673   -0.606557    0.007711    0.006242   -0.012089    0.001278
N    -1.080719    0.708988   -0.097339    0.000040    0.001971   -0.000174
C     0.172122    1.398909   -0.122204    0.001389   -0.000098    0.000064
O    -2.343754   -1.219111    0.031004   -0.001438   -0.001886    0.000133
O     0.202486    2.587719   -0.223077   -0.001902    0.005825   -0.000552
H     2.160255   -1.473303    0.176446   -0.010054    0.006605   -0.000866
H    -0.185028   -2.409124    0.713200    0.179288    1.147122    0.799901
H    -1.906517    1.310293   -0.173457   -0.001804    0.001033   -0.000215
H     2.352392    1.033185   -0.031852   -0.040626    0.020625   -0.002945
H    -0.157796   -2.498874   -0.310460    0.227540    0.990470   -0.976414
13
* Frequency(30) 1572.4490
C     1.372126    0.544788   -0.016324    0.002276   -0.050977    0.004394
C     1.299791   -0.803289    0.096470    0.010011    0.030988   -0.002286
N     0.002730   -1.423539    0.115696   -0.038806   -0.134744    0.010687
C    -1.332385   -0.607117    0.007770    0.006242   -0.012089    0.001278
N    -1.080717    0.709079   -0.097348    0.000040    0.001971   -0.000174
C     0.172186    1.398904   -0.122201    0.001389   -0.000098    0.000064
O    -2.343820   -1.219198    0.031010   -0.001438   -0.001886    0.000133
O     0.202398    2.587988   -0.223103   -0.001902    0.005825   -0.000552
H     2.159790   -1.472997    0.176406   -0.010054    0.006605   -0.000866
H    -0.176730   -2.356033    0.750221    0.179288    1.147122    0.799901
H    -1.906600    1.310341   -0.173467   -0.001804    0.001033   -0.000215
H     2.350511    1.034140   -0.031989   -0.040626    0.020625   -0.002945
H    -0.147265   -2.453033   -0.355650    0.227540    0.990470   -0.976414
13
* Frequency(30) 1572.4490
C     1.372303    0.540810   -0.015981    0.002276   -0.050977    0.004394
C     1.300572   -0.800871    0.096292    0.010011    0.030988   -0.002286
N    -0.000298   -1.434054    0.116530   -0.038806   -0.134744    0.010687
C    -1.331897   -0.608060    0.007870    0.006242   -0.012089    0.001278
N    -1.080714    0.709233   -0.097361    0.000040    0.001971   -0.000174
C     0.172295    1.398897   -0.122196    0.001389   -0.000098    0.000064
O    -2.343933   -1.219346    0.031020   -0.001438   -0.001886    0.000133
O     0.202250    2.588443   -0.223146   -0.001902    0.005825   -0.000552
H     2.159005   -1.472482    0.176338   -0.010054    0.006605   -0.000866
H    -0.162740   -2.266519    0.812640    0.179288    1.147122    0.799901
H    -1.906741    1.310422   -0.173483   -0.001804    0.001033   -0.000215
H     2.347341    1.035749   -0.032218   -0.040626    0.020625   -0.002945
H    -0.129509   -2.375743   -0.431843    0.227540    0.990470   -0.976414
13
* Frequency(30) 1572.4490
C     1.372534    0.535644   -0.015535    0.002276   -0.050977    0.004394
C     1.301586   -0.797731    0.096060    0.010011    0.030988   -0.002286
N    -0.004230   -1.447707    0.117613   -0.038806   -0.134744    0.010687
C    -1.331265   -0.609285    0.007999    0.006242   -0.012089    0.001278
N    -1.080710    0.709433   -0.097379    0.000040    0.001971   -0.000174
C     0.172435    1.398887   -0.122190    0.001389   -0.000098    0.000064
O    -2.344078   -1.219537    0.031034   -0.001438   -0.001886    0.000133
O     0.202057    2.589033   -0.223202   -0.001902    0.005825   -0.000552
H     2.157986   -1.471812    0.176250   -0.010054    0.006605   -0.000866
H    -0.144573   -2.150281    0.893694    0.179288    1.147122    0.799901
H    -1.906924    1.310526   -0.173505   -0.001804    0.001033   -0.000215
H     2.343225    1.037839   -0.032517   -0.040626    0.020625   -0.002945
H    -0.106452   -2.275379   -0.530783    0.227540    0.990470   -0.976414
13
* Frequency(30) 1572.4490
C     1.372793    0.529851   -0.015036    0.002276   -0.050977    0.004394
C     1.302724   -0.794210    0.095800    0.010011    0.030988   -0.002286
N    -0.008640   -1.463020    0.118827   -0.038806   -0.134744    0.010687
C    -1.330555   -0.610659    0.008144    0.006242   -0.012089    0.001278
N    -1.080705    0.709657   -0.097399    0.000040    0.001971   -0.000174
C     0.172593    1.398876   -0.122183    0.001389   -0.000098    0.000064
O    -2.344242   -1.219751    0.031049   -0.001438   -0.001886    0.000133
O     0.201841    2.589695   -0.223265   -0.001902    0.005825   -0.000552
H     2.156844   -1.471062    0.176152   -0.010054    0.006605   -0.000866
H    -0.124198   -2.019917    0.984598    0.179288    1.147122    0.799901
H    -1.907129    1.310644   -0.173530   -0.001804    0.001033   -0.000215
H     2.338608    1.040183   -0.032851   -0.040626    0.020625   -0.002945
H    -0.080594   -2.162817   -0.641747    0.227540    0.990470   -0.976414
