13
* (null), Energy   -1000.0000000
C     1.628522    0.403282    0.009825   -0.001031   -0.002017    0.000146
C     1.558257   -0.920826    0.121541   -0.012563    0.039788   -0.003777
N     0.246846   -1.589915    0.143551    0.088718    0.002615    0.002176
C    -1.074947   -0.737408    0.033678    0.062034   -0.051193    0.006244
N    -0.825093    0.582903   -0.073451    0.232546    0.383323   -0.026694
C     0.428005    1.271956   -0.097784    0.006791    0.003884   -0.000010
O    -2.088804   -1.345922    0.058464   -0.170025   -0.115212    0.005250
O     0.457572    2.462843   -0.197982   -0.036368   -0.122567    0.009377
H     2.412149   -1.597989    0.202997   -0.101955   -0.057131    0.002213
H     0.131582   -2.147641    1.008616   -0.316450    0.063325   -0.008616
H    -1.651708    1.183769   -0.147738   -1.143370   -1.476332    0.096683
H     2.594425    0.913409   -0.007422    0.030904   -0.067174    0.006623
H     0.175864   -2.288698   -0.617572   -0.315580    0.062071   -0.019395
13
* Frequency(29) 1441.1945
C     1.628405    0.403052    0.009842   -0.001031   -0.002017    0.000146
C     1.556829   -0.916304    0.121112   -0.012563    0.039788   -0.003777
N     0.256928   -1.589617    0.143798    0.088718    0.002615    0.002176
C    -1.067898   -0.743226    0.034387    0.062034   -0.051193    0.006244
N    -0.798665    0.626466   -0.076485    0.232546    0.383323   -0.026694
C     0.428777    1.272397   -0.097785    0.006791    0.003884   -0.000010
O    -2.108127   -1.359015    0.059061   -0.170025   -0.115212    0.005250
O     0.453439    2.448914   -0.196917   -0.036368   -0.122567    0.009377
H     2.400562   -1.604481    0.203248   -0.101955   -0.057131    0.002213
H     0.095619   -2.140445    1.007637   -0.316450    0.063325   -0.008616
H    -1.781646    1.015992   -0.136751   -1.143370   -1.476332    0.096683
H     2.597937    0.905775   -0.006669    0.030904   -0.067174    0.006623
H     0.140000   -2.281644   -0.619776   -0.315580    0.062071   -0.019395
13
* Frequency(29) 1441.1945
C     1.628301    0.402848    0.009857   -0.001031   -0.002017    0.000146
C     1.555556   -0.912272    0.120730   -0.012563    0.039788   -0.003777
N     0.265918   -1.589352    0.144019    0.088718    0.002615    0.002176
C    -1.061612   -0.748413    0.035020    0.062034   -0.051193    0.006244
N    -0.775101    0.665308   -0.079189    0.232546    0.383323   -0.026694
C     0.429465    1.272791   -0.097786    0.006791    0.003884   -0.000010
O    -2.125355   -1.370689    0.059593   -0.170025   -0.115212    0.005250
O     0.449754    2.436494   -0.195966   -0.036368   -0.122567    0.009377
H     2.390231   -1.610271    0.203472   -0.101955   -0.057131    0.002213
H     0.063554   -2.134028    1.006764   -0.316450    0.063325   -0.008616
H    -1.897503    0.866396   -0.126954   -1.143370   -1.476332    0.096683
H     2.601068    0.898969   -0.005998    0.030904   -0.067174    0.006623
H     0.108022   -2.275355   -0.621742   -0.315580    0.062071   -0.019395
13
* Frequency(29) 1441.1945
C     1.628220    0.402691    0.009868   -0.001031   -0.002017    0.000146
C     1.554576   -0.909168    0.120435   -0.012563    0.039788   -0.003777
N     0.272841   -1.589148    0.144189    0.088718    0.002615    0.002176
C    -1.056771   -0.752408    0.035507    0.062034   -0.051193    0.006244
N    -0.756955    0.695220   -0.081272    0.232546    0.383323   -0.026694
C     0.429995    1.273094   -0.097787    0.006791    0.003884   -0.000010
O    -2.138623   -1.379680    0.060003   -0.170025   -0.115212    0.005250
O     0.446916    2.426929   -0.195235   -0.036368   -0.122567    0.009377
H     2.382275   -1.614729    0.203645   -0.101955   -0.057131    0.002213
H     0.038860   -2.129087    1.006091   -0.316450    0.063325   -0.008616
H    -1.986725    0.751192   -0.119409   -1.143370   -1.476332    0.096683
H     2.603480    0.893727   -0.005481    0.030904   -0.067174    0.006623
H     0.083396   -2.270511   -0.623255   -0.315580    0.062071   -0.019395
13
* Frequency(29) 1441.1945
C     1.628173    0.402597    0.009875   -0.001031   -0.002017    0.000146
C     1.553995   -0.907326    0.120260   -0.012563    0.039788   -0.003777
N     0.276947   -1.589027    0.144289    0.088718    0.002615    0.002176
C    -1.053900   -0.754777    0.035796    0.062034   -0.051193    0.006244
N    -0.746192    0.712961   -0.082508    0.232546    0.383323   -0.026694
C     0.430309    1.273274   -0.097787    0.006791    0.003884   -0.000010
O    -2.146492   -1.385012    0.060246   -0.170025   -0.115212    0.005250
O     0.445233    2.421257   -0.194801   -0.036368   -0.122567    0.009377
H     2.377556   -1.617373    0.203747   -0.101955   -0.057131    0.002213
H     0.024214   -2.126156    1.005692   -0.316450    0.063325   -0.008616
H    -2.039642    0.682865   -0.114934   -1.143370   -1.476332    0.096683
H     2.604910    0.890618   -0.005175    0.030904   -0.067174    0.006623
H     0.068791   -2.267638   -0.624153   -0.315580    0.062071   -0.019395
13
* Frequency(29) 1441.1945
C     1.628163    0.402578    0.009876   -0.001031   -0.002017    0.000146
C     1.553875   -0.906948    0.120224   -0.012563    0.039788   -0.003777
N     0.277791   -1.589002    0.144310    0.088718    0.002615    0.002176
C    -1.053310   -0.755264    0.035856    0.062034   -0.051193    0.006244
N    -0.743980    0.716608   -0.082762    0.232546    0.383323   -0.026694
C     0.430374    1.273310   -0.097788    0.006791    0.003884   -0.000010
O    -2.148110   -1.386108    0.060296   -0.170025   -0.115212    0.005250
O     0.444887    2.420091   -0.194711   -0.036368   -0.122567    0.009377
H     2.376586   -1.617916    0.203769   -0.101955   -0.057131    0.002213
H     0.021203   -2.125553    1.005610   -0.316450    0.063325   -0.008616
H    -2.050521    0.668818   -0.114014   -1.143370   -1.476332    0.096683
H     2.605204    0.889979   -0.005112    0.030904   -0.067174    0.006623
H     0.065788   -2.267048   -0.624337   -0.315580    0.062071   -0.019395
13
* Frequency(29) 1441.1945
C     1.628192    0.402635    0.009872   -0.001031   -0.002017    0.000146
C     1.554230   -0.908073    0.120331   -0.012563    0.039788   -0.003777
N     0.275282   -1.589076    0.144248    0.088718    0.002615    0.002176
C    -1.055064   -0.753816    0.035679    0.062034   -0.051193    0.006244
N    -0.750557    0.705766   -0.082007    0.232546    0.383323   -0.026694
C     0.430182    1.273201   -0.097787    0.006791    0.003884   -0.000010
O    -2.143301   -1.382850    0.060147   -0.170025   -0.115212    0.005250
O     0.445915    2.423557   -0.194977   -0.036368   -0.122567    0.009377
H     2.379470   -1.616300    0.203706   -0.101955   -0.057131    0.002213
H     0.030153   -2.127344    1.005854   -0.316450    0.063325   -0.008616
H    -2.018182    0.710575   -0.116749   -1.143370   -1.476332    0.096683
H     2.604330    0.891879   -0.005299    0.030904   -0.067174    0.006623
H     0.074714   -2.268803   -0.623789   -0.315580    0.062071   -0.019395
13
* Frequency(29) 1441.1945
C     1.628257    0.402762    0.009863   -0.001031   -0.002017    0.000146
C     1.555022   -0.910580    0.120569   -0.012563    0.039788   -0.003777
N     0.269691   -1.589241    0.144111    0.088718    0.002615    0.002176
C    -1.058974   -0.750590    0.035286    0.062034   -0.051193    0.006244
N    -0.765212    0.681610   -0.080325    0.232546    0.383323   -0.026694
C     0.429754    1.272956   -0.097787    0.006791    0.003884   -0.000010
O    -2.132586   -1.375589    0.059816   -0.170025   -0.115212    0.005250
O     0.448207    2.431281   -0.195568   -0.036368   -0.122567    0.009377
H     2.385895   -1.612700    0.203567   -0.101955   -0.057131    0.002213
H     0.050095   -2.131335    1.006397   -0.316450    0.063325   -0.008616
H    -1.946130    0.803609   -0.122842   -1.143370   -1.476332    0.096683
H     2.602383    0.896112   -0.005717    0.030904   -0.067174    0.006623
H     0.094601   -2.272715   -0.622566   -0.315580    0.062071   -0.019395
13
* Frequency(29) 1441.1945
C     1.628351    0.402946    0.009850   -0.001031   -0.002017    0.000146
C     1.556164   -0.914198    0.120912   -0.012563    0.039788   -0.003777
N     0.261624   -1.589479    0.143913    0.088718    0.002615    0.002176
C    -1.064614   -0.745936    0.034718    0.062034   -0.051193    0.006244
N    -0.786355    0.646758   -0.077898    0.232546    0.383323   -0.026694
C     0.429136    1.272603   -0.097786    0.006791    0.003884   -0.000010
O    -2.117127   -1.365114    0.059339   -0.170025   -0.115212    0.005250
O     0.451514    2.442425   -0.196420   -0.036368   -0.122567    0.009377
H     2.395165   -1.607506    0.203365   -0.101955   -0.057131    0.002213
H     0.078868   -2.137093    1.007180   -0.316450    0.063325   -0.008616
H    -1.842172    0.937840   -0.131632   -1.143370   -1.476332    0.096683
H     2.599573    0.902219   -0.006319    0.030904   -0.067174    0.006623
H     0.123294   -2.278358   -0.620803   -0.315580    0.062071   -0.019395
13
* Frequency(29) 1441.1945
C     1.628463    0.403165    0.009834   -0.001031   -0.002017    0.000146
C     1.557533   -0.918534    0.121324   -0.012563    0.039788   -0.003777
N     0.251956   -1.589764    0.143676    0.088718    0.002615    0.002176
C    -1.071374   -0.740357    0.034038    0.062034   -0.051193    0.006244
N    -0.811696    0.604986   -0.074989    0.232546    0.383323   -0.026694
C     0.428396    1.272180   -0.097785    0.006791    0.003884   -0.000010
O    -2.098599   -1.352559    0.058767   -0.170025   -0.115212    0.005250
O     0.455477    2.455782   -0.197442   -0.036368   -0.122567    0.009377
H     2.406275   -1.601280    0.203124   -0.101955   -0.057131    0.002213
H     0.113352   -2.143993    1.008119   -0.316450    0.063325   -0.008616
H    -1.717575    1.098721   -0.142168   -1.143370   -1.476332    0.096683
H     2.596205    0.909539   -0.007040    0.030904   -0.067174    0.006623
H     0.157684   -2.285123   -0.618689   -0.315580    0.062071   -0.019395
13
* Frequency(29) 1441.1945
C     1.628582    0.403398    0.009817   -0.001031   -0.002017    0.000146
C     1.558981   -0.923118    0.121759   -0.012563    0.039788   -0.003777
N     0.241735   -1.590065    0.143426    0.088718    0.002615    0.002176
C    -1.078521   -0.734459    0.033318    0.062034   -0.051193    0.006244
N    -0.838489    0.560821   -0.071913    0.232546    0.383323   -0.026694
C     0.427614    1.271732   -0.097783    0.006791    0.003884   -0.000010
O    -2.079009   -1.339284    0.058162   -0.170025   -0.115212    0.005250
O     0.459667    2.469904   -0.198522   -0.036368   -0.122567    0.009377
H     2.418022   -1.594698    0.202869   -0.101955   -0.057131    0.002213
H     0.149812   -2.151289    1.009112   -0.316450    0.063325   -0.008616
H    -1.585841    1.268818   -0.153308   -1.143370   -1.476332    0.096683
H     2.592645    0.917279   -0.007804    0.030904   -0.067174    0.006623
H     0.194044   -2.292274   -0.616455   -0.315580    0.062071   -0.019395
13
* Frequency(29) 1441.1945
C     1.628694    0.403618    0.009801   -0.001031   -0.002017    0.000146
C     1.560350   -0.927454    0.122171   -0.012563    0.039788   -0.003777
N     0.232067   -1.590350    0.143189    0.088718    0.002615    0.002176
C    -1.085281   -0.728880    0.032638    0.062034   -0.051193    0.006244
N    -0.863831    0.519049   -0.069004    0.232546    0.383323   -0.026694
C     0.426874    1.271309   -0.097782    0.006791    0.003884   -0.000010
O    -2.060481   -1.326729    0.057590   -0.170025   -0.115212    0.005250
O     0.463630    2.483260   -0.199544   -0.036368   -0.122567    0.009377
H     2.429132   -1.588472    0.202628   -0.101955   -0.057131    0.002213
H     0.184297   -2.158190    1.010051   -0.316450    0.063325   -0.008616
H    -1.461244    1.429699   -0.163844   -1.143370   -1.476332    0.096683
H     2.589277    0.924599   -0.008525    0.030904   -0.067174    0.006623
H     0.228434   -2.299038   -0.614341   -0.315580    0.062071   -0.019395
13
* Frequency(29) 1441.1945
C     1.628788    0.403801    0.009788   -0.001031   -0.002017    0.000146
C     1.561492   -0.931071    0.122514   -0.012563    0.039788   -0.003777
N     0.224000   -1.590588    0.142991    0.088718    0.002615    0.002176
C    -1.090921   -0.724226    0.032070    0.062034   -0.051193    0.006244
N    -0.884974    0.484196   -0.066577    0.232546    0.383323   -0.026694
C     0.426256    1.270956   -0.097781    0.006791    0.003884   -0.000010
O    -2.045022   -1.316254    0.057112   -0.170025   -0.115212    0.005250
O     0.466937    2.494404   -0.200397   -0.036368   -0.122567    0.009377
H     2.438402   -1.583277    0.202427   -0.101955   -0.057131    0.002213
H     0.213069   -2.163948    1.010834   -0.316450    0.063325   -0.008616
H    -1.357286    1.563930   -0.172634   -1.143370   -1.476332    0.096683
H     2.586467    0.930707   -0.009127    0.030904   -0.067174    0.006623
H     0.257127   -2.304682   -0.612578   -0.315580    0.062071   -0.019395
13
* Frequency(29) 1441.1945
C     1.628853    0.403928    0.009779   -0.001031   -0.002017    0.000146
C     1.562284   -0.933579    0.122752   -0.012563    0.039788   -0.003777
N     0.218410   -1.590753    0.142854    0.088718    0.002615    0.002176
C    -1.094830   -0.720999    0.031676    0.062034   -0.051193    0.006244
N    -0.899629    0.460040   -0.064895    0.232546    0.383323   -0.026694
C     0.425828    1.270711   -0.097781    0.006791    0.003884   -0.000010
O    -2.034308   -1.308994    0.056781   -0.170025   -0.115212    0.005250
O     0.469229    2.502128   -0.200988   -0.036368   -0.122567    0.009377
H     2.444827   -1.579677    0.202287   -0.101955   -0.057131    0.002213
H     0.233011   -2.167938    1.011377   -0.316450    0.063325   -0.008616
H    -1.285234    1.656964   -0.178727   -1.143370   -1.476332    0.096683
H     2.584520    0.934940   -0.009545    0.030904   -0.067174    0.006623
H     0.277014   -2.308594   -0.611356   -0.315580    0.062071   -0.019395
13
* Frequency(29) 1441.1945
C     1.628882    0.403985    0.009775   -0.001031   -0.002017    0.000146
C     1.562639   -0.934704    0.122859   -0.012563    0.039788   -0.003777
N     0.215900   -1.590827    0.142792    0.088718    0.002615    0.002176
C    -1.096585   -0.719552    0.031500    0.062034   -0.051193    0.006244
N    -0.906206    0.449198   -0.064140    0.232546    0.383323   -0.026694
C     0.425636    1.270601   -0.097781    0.006791    0.003884   -0.000010
O    -2.029499   -1.305735    0.056633   -0.170025   -0.115212    0.005250
O     0.470258    2.505595   -0.201253   -0.036368   -0.122567    0.009377
H     2.447711   -1.578061    0.202225   -0.101955   -0.057131    0.002213
H     0.241962   -2.169730    1.011621   -0.316450    0.063325   -0.008616
H    -1.252895    1.698721   -0.181462   -1.143370   -1.476332    0.096683
H     2.583645    0.936840   -0.009732    0.030904   -0.067174    0.006623
H     0.285940   -2.310349   -0.610807   -0.315580    0.062071   -0.019395
13
* Frequency(29) 1441.1945
C     1.628872    0.403966    0.009776   -0.001031   -0.002017    0.000146
C     1.562520   -0.934325    0.122823   -0.012563    0.039788   -0.003777
N     0.216744   -1.590802    0.142813    0.088718    0.002615    0.002176
C    -1.095995   -0.720039    0.031559    0.062034   -0.051193    0.006244
N    -0.903993    0.452846   -0.064394    0.232546    0.383323   -0.026694
C     0.425701    1.270638   -0.097781    0.006791    0.003884   -0.000010
O    -2.031116   -1.306831    0.056683   -0.170025   -0.115212    0.005250
O     0.469912    2.504428   -0.201164   -0.036368   -0.122567    0.009377
H     2.446741   -1.578605    0.202246   -0.101955   -0.057131    0.002213
H     0.238951   -2.169127    1.011539   -0.316450    0.063325   -0.008616
H    -1.263774    1.684674   -0.180542   -1.143370   -1.476332    0.096683
H     2.583939    0.936201   -0.009669    0.030904   -0.067174    0.006623
H     0.282937   -2.309759   -0.610992   -0.315580    0.062071   -0.019395
13
* Frequency(29) 1441.1945
C     1.628824    0.403873    0.009783   -0.001031   -0.002017    0.000146
C     1.561938   -0.932484    0.122648   -0.012563    0.039788   -0.003777
N     0.220850   -1.590681    0.142914    0.088718    0.002615    0.002176
C    -1.093124   -0.722408    0.031848    0.062034   -0.051193    0.006244
N    -0.893231    0.470587   -0.065630    0.232546    0.383323   -0.026694
C     0.426015    1.270818   -0.097781    0.006791    0.003884   -0.000010
O    -2.038985   -1.312163    0.056926   -0.170025   -0.115212    0.005250
O     0.468228    2.498756   -0.200730   -0.036368   -0.122567    0.009377
H     2.442022   -1.581249    0.202348   -0.101955   -0.057131    0.002213
H     0.224305   -2.166196    1.011140   -0.316450    0.063325   -0.008616
H    -1.316691    1.616347   -0.176067   -1.143370   -1.476332    0.096683
H     2.585370    0.933092   -0.009363    0.030904   -0.067174    0.006623
H     0.268332   -2.306886   -0.611889   -0.315580    0.062071   -0.019395
13
* Frequency(29) 1441.1945
C     1.628744    0.403715    0.009794   -0.001031   -0.002017    0.000146
C     1.560958   -0.929379    0.122353   -0.012563    0.039788   -0.003777
N     0.227773   -1.590477    0.143083    0.088718    0.002615    0.002176
C    -1.088283   -0.726403    0.032335    0.062034   -0.051193    0.006244
N    -0.875084    0.500499   -0.067713    0.232546    0.383323   -0.026694
C     0.426545    1.271121   -0.097782    0.006791    0.003884   -0.000010
O    -2.052253   -1.321154    0.057336   -0.170025   -0.115212    0.005250
O     0.465390    2.489191   -0.199998   -0.036368   -0.122567    0.009377
H     2.434066   -1.585707    0.202521   -0.101955   -0.057131    0.002213
H     0.199611   -2.161255    1.010468   -0.316450    0.063325   -0.008616
H    -1.405913    1.501143   -0.168523   -1.143370   -1.476332    0.096683
H     2.587781    0.927850   -0.008846    0.030904   -0.067174    0.006623
H     0.243706   -2.302042   -0.613403   -0.315580    0.062071   -0.019395
13
* Frequency(29) 1441.1945
C     1.628639    0.403511    0.009809   -0.001031   -0.002017    0.000146
C     1.559685   -0.925347    0.121971   -0.012563    0.039788   -0.003777
N     0.236763   -1.590212    0.143304    0.088718    0.002615    0.002176
C    -1.081997   -0.731590    0.032968    0.062034   -0.051193    0.006244
N    -0.851520    0.539341   -0.070417    0.232546    0.383323   -0.026694
C     0.427233    1.271515   -0.097783    0.006791    0.003884   -0.000010
O    -2.069482   -1.332828    0.057868   -0.170025   -0.115212    0.005250
O     0.461705    2.476772   -0.199048   -0.036368   -0.122567    0.009377
H     2.423735   -1.591496    0.202745   -0.101955   -0.057131    0.002213
H     0.167545   -2.154838    1.009595   -0.316450    0.063325   -0.008616
H    -1.521770    1.351547   -0.158726   -1.143370   -1.476332    0.096683
H     2.590913    0.921043   -0.008175    0.030904   -0.067174    0.006623
H     0.211728   -2.295752   -0.615368   -0.315580    0.062071   -0.019395
13
* Frequency(29) 1441.1945
C     1.628522    0.403282    0.009825   -0.001031   -0.002017    0.000146
C     1.558257   -0.920826    0.121541   -0.012563    0.039788   -0.003777
N     0.246846   -1.589915    0.143551    0.088718    0.002615    0.002176
C    -1.074947   -0.737408    0.033678    0.062034   -0.051193    0.006244
N    -0.825093    0.582903   -0.073451    0.232546    0.383323   -0.026694
C     0.428005    1.271956   -0.097784    0.006791    0.003884   -0.000010
O    -2.088804   -1.345922    0.058464   -0.170025   -0.115212    0.005250
O     0.457572    2.462843   -0.197982   -0.036368   -0.122567    0.009377
H     2.412149   -1.597989    0.202997   -0.101955   -0.057131    0.002213
H     0.131582   -2.147641    1.008616   -0.316450    0.063325   -0.008616
H    -1.651708    1.183769   -0.147738   -1.143370   -1.476332    0.096683
H     2.594425    0.913409   -0.007422    0.030904   -0.067174    0.006623
H     0.175864   -2.288698   -0.617572   -0.315580    0.062071   -0.019395
