13
* (null), Energy   -1000.0000000
C     1.628522    0.403282    0.009825    0.014017   -0.044023   -0.515559
C     1.558257   -0.920826    0.121541   -0.013579    0.043048    0.498423
N     0.246846   -1.589915    0.143551    0.001965   -0.006076   -0.071785
C    -1.074947   -0.737408    0.033678   -0.000131    0.000090    0.000045
N    -0.825093    0.582903   -0.073451   -0.003776    0.010855    0.123999
C     0.428005    1.271956   -0.097784    0.007303   -0.023110   -0.268867
O    -2.088804   -1.345922    0.058464    0.001161   -0.003698   -0.040198
O     0.457572    2.462843   -0.197982   -0.004850    0.016188    0.194318
H     2.412149   -1.597989    0.202997   -0.034568    0.110662    1.280741
H     0.131582   -2.147641    1.008616   -0.253956   -0.532389   -0.451036
H    -1.651708    1.183769   -0.147738   -0.014083    0.043709    0.504261
H     2.594425    0.913409   -0.007422    0.015591   -0.049107   -0.576794
H     0.175864   -2.288698   -0.617572    0.280060    0.448406   -0.521542
13
* Frequency(8)  309.9906
C     1.630115    0.398279   -0.048765    0.014017   -0.044023   -0.515559
C     1.556714   -0.915934    0.178185   -0.013579    0.043048    0.498423
N     0.247069   -1.590605    0.135393    0.001965   -0.006076   -0.071785
C    -1.074962   -0.737398    0.033683   -0.000131    0.000090    0.000045
N    -0.825522    0.584137   -0.059359   -0.003776    0.010855    0.123999
C     0.428835    1.269330   -0.128339    0.007303   -0.023110   -0.268867
O    -2.088672   -1.346342    0.053896    0.001161   -0.003698   -0.040198
O     0.457021    2.464682   -0.175899   -0.004850    0.016188    0.194318
H     2.408220   -1.585413    0.348546   -0.034568    0.110662    1.280741
H     0.102721   -2.208145    0.957358   -0.253956   -0.532389   -0.451036
H    -1.653308    1.188737   -0.090431   -0.014083    0.043709    0.504261
H     2.596197    0.907828   -0.072972    0.015591   -0.049107   -0.576794
H     0.207691   -2.237739   -0.676843    0.280060    0.448406   -0.521542
13
* Frequency(8)  309.9906
C     1.631536    0.393818   -0.101007    0.014017   -0.044023   -0.515559
C     1.555338   -0.911572    0.228690   -0.013579    0.043048    0.498423
N     0.247268   -1.591221    0.128119    0.001965   -0.006076   -0.071785
C    -1.074976   -0.737389    0.033688   -0.000131    0.000090    0.000045
N    -0.825905    0.585237   -0.046794   -0.003776    0.010855    0.123999
C     0.429575    1.266988   -0.155584    0.007303   -0.023110   -0.268867
O    -2.088555   -1.346717    0.049823    0.001161   -0.003698   -0.040198
O     0.456529    2.466323   -0.156209   -0.004850    0.016188    0.194318
H     2.404717   -1.574199    0.478323   -0.034568    0.110662    1.280741
H     0.076988   -2.262091    0.911654   -0.253956   -0.532389   -0.451036
H    -1.654735    1.193166   -0.039335   -0.014083    0.043709    0.504261
H     2.597777    0.902852   -0.131418    0.015591   -0.049107   -0.576794
H     0.236070   -2.192303   -0.729690    0.280060    0.448406   -0.521542
13
* Frequency(8)  309.9906
C     1.632629    0.390382   -0.141238    0.014017   -0.044023   -0.515559
C     1.554278   -0.908212    0.267584   -0.013579    0.043048    0.498423
N     0.247421   -1.591695    0.122517    0.001965   -0.006076   -0.071785
C    -1.074986   -0.737381    0.033691   -0.000131    0.000090    0.000045
N    -0.826199    0.586084   -0.037118   -0.003776    0.010855    0.123999
C     0.430145    1.265184   -0.176564    0.007303   -0.023110   -0.268867
O    -2.088464   -1.347005    0.046686    0.001161   -0.003698   -0.040198
O     0.456151    2.467586   -0.141045   -0.004850    0.016188    0.194318
H     2.402020   -1.565564    0.578264   -0.034568    0.110662    1.280741
H     0.057171   -2.303636    0.876458   -0.253956   -0.532389   -0.451036
H    -1.655834    1.196577    0.000015   -0.014083    0.043709    0.504261
H     2.598993    0.899020   -0.176427    0.015591   -0.049107   -0.576794
H     0.257924   -2.157312   -0.770388    0.280060    0.448406   -0.521542
13
* Frequency(8)  309.9906
C     1.633278    0.388345   -0.165099    0.014017   -0.044023   -0.515559
C     1.553650   -0.906220    0.290652   -0.013579    0.043048    0.498423
N     0.247512   -1.591976    0.119195    0.001965   -0.006076   -0.071785
C    -1.074992   -0.737377    0.033693   -0.000131    0.000090    0.000045
N    -0.826374    0.586586   -0.031379   -0.003776    0.010855    0.123999
C     0.430483    1.264115   -0.189008    0.007303   -0.023110   -0.268867
O    -2.088410   -1.347176    0.044825    0.001161   -0.003698   -0.040198
O     0.455926    2.468335   -0.132052   -0.004850    0.016188    0.194318
H     2.400420   -1.560442    0.637540   -0.034568    0.110662    1.280741
H     0.045417   -2.328276    0.855584   -0.253956   -0.532389   -0.451036
H    -1.656486    1.198599    0.023353   -0.014083    0.043709    0.504261
H     2.599715    0.896748   -0.203122    0.015591   -0.049107   -0.576794
H     0.270886   -2.136559   -0.794526    0.280060    0.448406   -0.521542
13
* Frequency(8)  309.9906
C     1.633411    0.387926   -0.170004    0.014017   -0.044023   -0.515559
C     1.553521   -0.905811    0.295394   -0.013579    0.043048    0.498423
N     0.247531   -1.592034    0.118512    0.001965   -0.006076   -0.071785
C    -1.074993   -0.737376    0.033694   -0.000131    0.000090    0.000045
N    -0.826410    0.586690   -0.030200   -0.003776    0.010855    0.123999
C     0.430552    1.263895   -0.191566    0.007303   -0.023110   -0.268867
O    -2.088399   -1.347212    0.044443    0.001161   -0.003698   -0.040198
O     0.455880    2.468489   -0.130203   -0.004850    0.016188    0.194318
H     2.400091   -1.559389    0.649725   -0.034568    0.110662    1.280741
H     0.043001   -2.333341    0.851292   -0.253956   -0.532389   -0.451036
H    -1.656620    1.199015    0.028151   -0.014083    0.043709    0.504261
H     2.599863    0.896280   -0.208610    0.015591   -0.049107   -0.576794
H     0.273550   -2.132292   -0.799489    0.280060    0.448406   -0.521542
13
* Frequency(8)  309.9906
C     1.633015    0.389171   -0.155422    0.014017   -0.044023   -0.515559
C     1.553905   -0.907028    0.281296   -0.013579    0.043048    0.498423
N     0.247476   -1.591862    0.120542    0.001965   -0.006076   -0.071785
C    -1.074990   -0.737379    0.033692   -0.000131    0.000090    0.000045
N    -0.826303    0.586383   -0.033707   -0.003776    0.010855    0.123999
C     0.430346    1.264549   -0.183962    0.007303   -0.023110   -0.268867
O    -2.088432   -1.347107    0.045580    0.001161   -0.003698   -0.040198
O     0.456017    2.468031   -0.135699   -0.004850    0.016188    0.194318
H     2.401069   -1.562519    0.613501   -0.034568    0.110662    1.280741
H     0.050184   -2.318283    0.864049   -0.253956   -0.532389   -0.451036
H    -1.656222    1.197779    0.013888   -0.014083    0.043709    0.504261
H     2.599422    0.897669   -0.192296    0.015591   -0.049107   -0.576794
H     0.265629   -2.144975   -0.784737    0.280060    0.448406   -0.521542
13
* Frequency(8)  309.9906
C     1.632132    0.391945   -0.122933    0.014017   -0.044023   -0.515559
C     1.554760   -0.909741    0.249887   -0.013579    0.043048    0.498423
N     0.247352   -1.591479    0.125066    0.001965   -0.006076   -0.071785
C    -1.074981   -0.737385    0.033689   -0.000131    0.000090    0.000045
N    -0.826065    0.585699   -0.041521   -0.003776    0.010855    0.123999
C     0.429886    1.266005   -0.167018    0.007303   -0.023110   -0.268867
O    -2.088505   -1.346874    0.048113    0.001161   -0.003698   -0.040198
O     0.456323    2.467011   -0.147945   -0.004850    0.016188    0.194318
H     2.403247   -1.569493    0.532792   -0.034568    0.110662    1.280741
H     0.066188   -2.284733    0.892472   -0.253956   -0.532389   -0.451036
H    -1.655334    1.195025   -0.017889   -0.014083    0.043709    0.504261
H     2.598440    0.900764   -0.155948    0.015591   -0.049107   -0.576794
H     0.247980   -2.173232   -0.751871    0.280060    0.448406   -0.521542
13
* Frequency(8)  309.9906
C     1.630857    0.395948   -0.076057    0.014017   -0.044023   -0.515559
C     1.555995   -0.913655    0.204570   -0.013579    0.043048    0.498423
N     0.247173   -1.590927    0.131593    0.001965   -0.006076   -0.071785
C    -1.074969   -0.737393    0.033685   -0.000131    0.000090    0.000045
N    -0.825722    0.584712   -0.052795   -0.003776    0.010855    0.123999
C     0.429221    1.268106   -0.142572    0.007303   -0.023110   -0.268867
O    -2.088611   -1.346538    0.051768    0.001161   -0.003698   -0.040198
O     0.456764    2.465539   -0.165612   -0.004850    0.016188    0.194318
H     2.406390   -1.579554    0.416345   -0.034568    0.110662    1.280741
H     0.089278   -2.236328    0.933481   -0.253956   -0.532389   -0.451036
H    -1.654054    1.191051   -0.063737   -0.014083    0.043709    0.504261
H     2.597022    0.905229   -0.103505    0.015591   -0.049107   -0.576794
H     0.222517   -2.214002   -0.704452    0.280060    0.448406   -0.521542
13
* Frequency(8)  309.9906
C     1.629330    0.400745   -0.019875    0.014017   -0.044023   -0.515559
C     1.557475   -0.918346    0.150255   -0.013579    0.043048    0.498423
N     0.246959   -1.590265    0.139416    0.001965   -0.006076   -0.071785
C    -1.074955   -0.737403    0.033680   -0.000131    0.000090    0.000045
N    -0.825310    0.583529   -0.066308   -0.003776    0.010855    0.123999
C     0.428426    1.270625   -0.113273    0.007303   -0.023110   -0.268867
O    -2.088737   -1.346135    0.056149    0.001161   -0.003698   -0.040198
O     0.457293    2.463775   -0.186788   -0.004850    0.016188    0.194318
H     2.410157   -1.591614    0.276778   -0.034568    0.110662    1.280741
H     0.116952   -2.178311    0.982632   -0.253956   -0.532389   -0.451036
H    -1.652519    1.186287   -0.118689   -0.014083    0.043709    0.504261
H     2.595323    0.910580   -0.040650    0.015591   -0.049107   -0.576794
H     0.191998   -2.262867   -0.647617    0.280060    0.448406   -0.521542
13
* Frequency(8)  309.9906
C     1.627715    0.405818    0.039526    0.014017   -0.044023   -0.515559
C     1.559039   -0.923306    0.092828   -0.013579    0.043048    0.498423
N     0.246732   -1.589564    0.147686    0.001965   -0.006076   -0.071785
C    -1.074940   -0.737413    0.033675   -0.000131    0.000090    0.000045
N    -0.824875    0.582278   -0.080594   -0.003776    0.010855    0.123999
C     0.427584    1.273287   -0.082295    0.007303   -0.023110   -0.268867
O    -2.088871   -1.345709    0.060780    0.001161   -0.003698   -0.040198
O     0.457852    2.461910   -0.209177   -0.004850    0.016188    0.194318
H     2.414140   -1.604364    0.129216   -0.034568    0.110662    1.280741
H     0.146212   -2.116971    1.034599   -0.253956   -0.532389   -0.451036
H    -1.650897    1.181251   -0.176788   -0.014083    0.043709    0.504261
H     2.593527    0.916238    0.025806    0.015591   -0.049107   -0.576794
H     0.159730   -2.314530   -0.587527    0.280060    0.448406   -0.521542
13
* Frequency(8)  309.9906
C     1.626187    0.410615    0.095708    0.014017   -0.044023   -0.515559
C     1.560519   -0.927997    0.038513   -0.013579    0.043048    0.498423
N     0.246518   -1.588902    0.155509    0.001965   -0.006076   -0.071785
C    -1.074926   -0.737423    0.033670   -0.000131    0.000090    0.000045
N    -0.824464    0.581095   -0.094107   -0.003776    0.010855    0.123999
C     0.426788    1.275806   -0.052996    0.007303   -0.023110   -0.268867
O    -2.088998   -1.345306    0.065161    0.001161   -0.003698   -0.040198
O     0.458380    2.460146   -0.230352   -0.004850    0.016188    0.194318
H     2.417907   -1.616423   -0.010351   -0.034568    0.110662    1.280741
H     0.173887   -2.058955    1.083750   -0.253956   -0.532389   -0.451036
H    -1.649362    1.176488   -0.231739   -0.014083    0.043709    0.504261
H     2.591828    0.921590    0.088661    0.015591   -0.049107   -0.576794
H     0.129211   -2.363394   -0.530693    0.280060    0.448406   -0.521542
13
* Frequency(8)  309.9906
C     1.624913    0.414618    0.142584    0.014017   -0.044023   -0.515559
C     1.561754   -0.931911   -0.006804   -0.013579    0.043048    0.498423
N     0.246340   -1.588350    0.162036    0.001965   -0.006076   -0.071785
C    -1.074914   -0.737431    0.033666   -0.000131    0.000090    0.000045
N    -0.824121    0.580108   -0.105381   -0.003776    0.010855    0.123999
C     0.426124    1.277907   -0.028550    0.007303   -0.023110   -0.268867
O    -2.089103   -1.344969    0.068815    0.001161   -0.003698   -0.040198
O     0.458821    2.458674   -0.248020   -0.004850    0.016188    0.194318
H     2.421050   -1.626485   -0.126799   -0.034568    0.110662    1.280741
H     0.196977   -2.010549    1.124759   -0.253956   -0.532389   -0.451036
H    -1.648082    1.172514   -0.277587   -0.014083    0.043709    0.504261
H     2.590410    0.926054    0.141104    0.015591   -0.049107   -0.576794
H     0.103748   -2.404164   -0.483273    0.280060    0.448406   -0.521542
13
* Frequency(8)  309.9906
C     1.624030    0.417392    0.175073    0.014017   -0.044023   -0.515559
C     1.562610   -0.934623   -0.038214   -0.013579    0.043048    0.498423
N     0.246216   -1.587967    0.166560    0.001965   -0.006076   -0.071785
C    -1.074905   -0.737437    0.033663   -0.000131    0.000090    0.000045
N    -0.823883    0.579424   -0.113195   -0.003776    0.010855    0.123999
C     0.425664    1.279363   -0.011607    0.007303   -0.023110   -0.268867
O    -2.089176   -1.344736    0.071349    0.001161   -0.003698   -0.040198
O     0.459127    2.457654   -0.260265   -0.004850    0.016188    0.194318
H     2.423228   -1.633458   -0.207507   -0.034568    0.110662    1.280741
H     0.212980   -1.977000    1.153182   -0.253956   -0.532389   -0.451036
H    -1.647194    1.169760   -0.309364   -0.014083    0.043709    0.504261
H     2.589428    0.929149    0.177452    0.015591   -0.049107   -0.576794
H     0.086099   -2.432422   -0.450407    0.280060    0.448406   -0.521542
13
* Frequency(8)  309.9906
C     1.623633    0.418637    0.189655    0.014017   -0.044023   -0.515559
C     1.562994   -0.935841   -0.052311   -0.013579    0.043048    0.498423
N     0.246160   -1.587795    0.168590    0.001965   -0.006076   -0.071785
C    -1.074902   -0.737439    0.033662   -0.000131    0.000090    0.000045
N    -0.823776    0.579117   -0.116702   -0.003776    0.010855    0.123999
C     0.425458    1.280017   -0.004002    0.007303   -0.023110   -0.268867
O    -2.089209   -1.344632    0.072486    0.001161   -0.003698   -0.040198
O     0.459264    2.457196   -0.265761   -0.004850    0.016188    0.194318
H     2.424206   -1.636588   -0.243732   -0.034568    0.110662    1.280741
H     0.220163   -1.961942    1.165939   -0.253956   -0.532389   -0.451036
H    -1.646796    1.168524   -0.323627   -0.014083    0.043709    0.504261
H     2.588987    0.930538    0.193766    0.015591   -0.049107   -0.576794
H     0.078178   -2.445104   -0.435656    0.280060    0.448406   -0.521542
13
* Frequency(8)  309.9906
C     1.623767    0.418218    0.184750    0.014017   -0.044023   -0.515559
C     1.562865   -0.935431   -0.047569   -0.013579    0.043048    0.498423
N     0.246179   -1.587853    0.167907    0.001965   -0.006076   -0.071785
C    -1.074903   -0.737439    0.033662   -0.000131    0.000090    0.000045
N    -0.823812    0.579220   -0.115523   -0.003776    0.010855    0.123999
C     0.425527    1.279797   -0.006560    0.007303   -0.023110   -0.268867
O    -2.089198   -1.344667    0.072103    0.001161   -0.003698   -0.040198
O     0.459218    2.457350   -0.263912   -0.004850    0.016188    0.194318
H     2.423877   -1.635535   -0.231546   -0.034568    0.110662    1.280741
H     0.217747   -1.967007    1.161648   -0.253956   -0.532389   -0.451036
H    -1.646930    1.168940   -0.318829   -0.014083    0.043709    0.504261
H     2.589135    0.930071    0.188278    0.015591   -0.049107   -0.576794
H     0.080842   -2.440838   -0.440618    0.280060    0.448406   -0.521542
13
* Frequency(8)  309.9906
C     1.624415    0.416181    0.160889    0.014017   -0.044023   -0.515559
C     1.562236   -0.933439   -0.024501   -0.013579    0.043048    0.498423
N     0.246270   -1.588134    0.164585    0.001965   -0.006076   -0.071785
C    -1.074909   -0.737434    0.033665   -0.000131    0.000090    0.000045
N    -0.823987    0.579723   -0.109784   -0.003776    0.010855    0.123999
C     0.425865    1.278727   -0.019004    0.007303   -0.023110   -0.268867
O    -2.089144   -1.344838    0.070243    0.001161   -0.003698   -0.040198
O     0.458993    2.458099   -0.254919   -0.004850    0.016188    0.194318
H     2.422277   -1.630414   -0.172271   -0.034568    0.110662    1.280741
H     0.205994   -1.991647    1.140773   -0.253956   -0.532389   -0.451036
H    -1.647582    1.170962   -0.295491   -0.014083    0.043709    0.504261
H     2.589857    0.927798    0.161583    0.015591   -0.049107   -0.576794
H     0.093804   -2.420085   -0.464756    0.280060    0.448406   -0.521542
13
* Frequency(8)  309.9906
C     1.625509    0.412745    0.120657    0.014017   -0.044023   -0.515559
C     1.561176   -0.930080    0.014393   -0.013579    0.043048    0.498423
N     0.246423   -1.588608    0.158983    0.001965   -0.006076   -0.071785
C    -1.074919   -0.737427    0.033668   -0.000131    0.000090    0.000045
N    -0.824281    0.580570   -0.100108   -0.003776    0.010855    0.123999
C     0.426435    1.276924   -0.039984    0.007303   -0.023110   -0.268867
O    -2.089054   -1.345127    0.067106    0.001161   -0.003698   -0.040198
O     0.458615    2.459363   -0.239756   -0.004850    0.016188    0.194318
H     2.419580   -1.621778   -0.072330   -0.034568    0.110662    1.280741
H     0.186176   -2.033191    1.105577   -0.253956   -0.532389   -0.451036
H    -1.648681    1.174373   -0.256141   -0.014083    0.043709    0.504261
H     2.591073    0.923966    0.116574    0.015591   -0.049107   -0.576794
H     0.115658   -2.385094   -0.505454    0.280060    0.448406   -0.521542
13
* Frequency(8)  309.9906
C     1.626929    0.408285    0.068416    0.014017   -0.044023   -0.515559
C     1.559800   -0.925718    0.064898   -0.013579    0.043048    0.498423
N     0.246622   -1.589224    0.151709    0.001965   -0.006076   -0.071785
C    -1.074933   -0.737418    0.033673   -0.000131    0.000090    0.000045
N    -0.824664    0.581670   -0.087543   -0.003776    0.010855    0.123999
C     0.427175    1.274582   -0.067229    0.007303   -0.023110   -0.268867
O    -2.088936   -1.345501    0.063033    0.001161   -0.003698   -0.040198
O     0.458123    2.461003   -0.220065   -0.004850    0.016188    0.194318
H     2.416077   -1.610565    0.057447   -0.034568    0.110662    1.280741
H     0.160443   -2.087138    1.059873   -0.253956   -0.532389   -0.451036
H    -1.650108    1.178802   -0.205045   -0.014083    0.043709    0.504261
H     2.592653    0.918990    0.058128    0.015591   -0.049107   -0.576794
H     0.144037   -2.339657   -0.558302    0.280060    0.448406   -0.521542
13
* Frequency(8)  309.9906
C     1.628522    0.403282    0.009825    0.014017   -0.044023   -0.515559
C     1.558257   -0.920826    0.121541   -0.013579    0.043048    0.498423
N     0.246846   -1.589915    0.143551    0.001965   -0.006076   -0.071785
C    -1.074947   -0.737408    0.033678   -0.000131    0.000090    0.000045
N    -0.825093    0.582903   -0.073451   -0.003776    0.010855    0.123999
C     0.428005    1.271956   -0.097784    0.007303   -0.023110   -0.268867
O    -2.088804   -1.345922    0.058464    0.001161   -0.003698   -0.040198
O     0.457572    2.462843   -0.197982   -0.004850    0.016188    0.194318
H     2.412149   -1.597989    0.202997   -0.034568    0.110662    1.280741
H     0.131582   -2.147641    1.008616   -0.253956   -0.532389   -0.451036
H    -1.651708    1.183769   -0.147738   -0.014083    0.043709    0.504261
H     2.594425    0.913409   -0.007422    0.015591   -0.049107   -0.576794
H     0.175864   -2.288698   -0.617572    0.280060    0.448406   -0.521542
