13
* (null), Energy   -1000.0000000
C     1.628522    0.403282    0.009825   -0.204742    0.335984   -0.034339
C     1.558257   -0.920826    0.121541   -0.303881    0.463531   -0.048107
N     0.246846   -1.589915    0.143551   -0.345175    0.427107   -0.046169
C    -1.074947   -0.737408    0.033678    0.587154   -0.310598    0.042977
N    -0.825093    0.582903   -0.073451    0.146285   -0.356866    0.035119
C     0.428005    1.271956   -0.097784   -0.276053   -0.464063    0.032973
O    -2.088804   -1.345922    0.058464    0.152797    0.381306   -0.028893
O     0.457572    2.462843   -0.197982    0.254517   -0.522839    0.051277
H     2.412149   -1.597989    0.202997   -0.515961    0.238958   -0.035986
H     0.131582   -2.147641    1.008616   -0.163360    0.348390   -0.054837
H    -1.651708    1.183769   -0.147738   -0.077113   -0.693576    0.056211
H     2.594425    0.913409   -0.007422   -0.426718    0.727720   -0.074764
H     0.175864   -2.288698   -0.617572   -0.164393    0.352726   -0.014948
13
* Frequency(14)  629.8344
C     1.605254    0.441464    0.005923   -0.204742    0.335984   -0.034339
C     1.523723   -0.868148    0.116074   -0.303881    0.463531   -0.048107
N     0.207618   -1.541376    0.138304   -0.345175    0.427107   -0.046169
C    -1.008220   -0.772706    0.038562    0.587154   -0.310598    0.042977
N    -0.808468    0.542347   -0.069460    0.146285   -0.356866    0.035119
C     0.396633    1.219217   -0.094037   -0.276053   -0.464063    0.032973
O    -2.071440   -1.302588    0.055181    0.152797    0.381306   -0.028893
O     0.486497    2.403425   -0.192155    0.254517   -0.522839    0.051277
H     2.353512   -1.570832    0.198907   -0.515961    0.238958   -0.035986
H     0.113017   -2.108049    1.002384   -0.163360    0.348390   -0.054837
H    -1.660472    1.104948   -0.141350   -0.077113   -0.693576    0.056211
H     2.545931    0.996111   -0.015919   -0.426718    0.727720   -0.074764
H     0.157182   -2.248613   -0.619271   -0.164393    0.352726   -0.014948
13
* Frequency(14)  629.8344
C     1.584508    0.475510    0.002443   -0.204742    0.335984   -0.034339
C     1.492931   -0.821178    0.111200   -0.303881    0.463531   -0.048107
N     0.172642   -1.498097    0.133626   -0.345175    0.427107   -0.046169
C    -0.948724   -0.804179    0.042917    0.587154   -0.310598    0.042977
N    -0.793645    0.506186   -0.065901    0.146285   -0.356866    0.035119
C     0.368661    1.172194   -0.090696   -0.276053   -0.464063    0.032973
O    -2.055957   -1.263951    0.052253    0.152797    0.381306   -0.028893
O     0.512287    2.350446   -0.186959    0.254517   -0.522839    0.051277
H     2.301230   -1.546619    0.195261   -0.515961    0.238958   -0.035986
H     0.096464   -2.072746    0.996827   -0.163360    0.348390   -0.054837
H    -1.668285    1.034668   -0.135654   -0.077113   -0.693576    0.056211
H     2.502691    1.069850   -0.023494   -0.426718    0.727720   -0.074764
H     0.140524   -2.212871   -0.620786   -0.164393    0.352726   -0.014948
13
* Frequency(14)  629.8344
C     1.568531    0.501728   -0.000236   -0.204742    0.335984   -0.034339
C     1.469218   -0.785007    0.107446   -0.303881    0.463531   -0.048107
N     0.145707   -1.464769    0.130023   -0.345175    0.427107   -0.046169
C    -0.902907   -0.828416    0.046270    0.587154   -0.310598    0.042977
N    -0.782230    0.478339   -0.063161    0.146285   -0.356866    0.035119
C     0.347119    1.135982   -0.088123   -0.276053   -0.464063    0.032973
O    -2.044034   -1.234196    0.049998    0.152797    0.381306   -0.028893
O     0.532148    2.309647   -0.182958    0.254517   -0.522839    0.051277
H     2.260968   -1.527972    0.192452   -0.515961    0.238958   -0.035986
H     0.083717   -2.045560    0.992548   -0.163360    0.348390   -0.054837
H    -1.674303    0.980546   -0.131268   -0.077113   -0.693576    0.056211
H     2.469393    1.126637   -0.029329   -0.426718    0.727720   -0.074764
H     0.127696   -2.185347   -0.621952   -0.164393    0.352726   -0.014948
13
* Frequency(14)  629.8344
C     1.559055    0.517278   -0.001826   -0.204742    0.335984   -0.034339
C     1.455153   -0.763554    0.105219   -0.303881    0.463531   -0.048107
N     0.129731   -1.445001    0.127886   -0.345175    0.427107   -0.046169
C    -0.875732   -0.842791    0.048259    0.587154   -0.310598    0.042977
N    -0.775460    0.461822   -0.061535    0.146285   -0.356866    0.035119
C     0.334343    1.114504   -0.086597   -0.276053   -0.464063    0.032973
O    -2.036962   -1.216548    0.048661    0.152797    0.381306   -0.028893
O     0.543927    2.285449   -0.180584    0.254517   -0.522839    0.051277
H     2.237088   -1.516913    0.190787   -0.515961    0.238958   -0.035986
H     0.076156   -2.029436    0.990010   -0.163360    0.348390   -0.054837
H    -1.677872    0.948446   -0.128666   -0.077113   -0.693576    0.056211
H     2.449644    1.160317   -0.032789   -0.426718    0.727720   -0.074764
H     0.120087   -2.169022   -0.622644   -0.164393    0.352726   -0.014948
13
* Frequency(14)  629.8344
C     1.557107    0.520474   -0.002152   -0.204742    0.335984   -0.034339
C     1.452262   -0.759144    0.104761   -0.303881    0.463531   -0.048107
N     0.126447   -1.440938    0.127447   -0.345175    0.427107   -0.046169
C    -0.870146   -0.845746    0.048668    0.587154   -0.310598    0.042977
N    -0.774068    0.458427   -0.061201    0.146285   -0.356866    0.035119
C     0.331716    1.110088   -0.086283   -0.276053   -0.464063    0.032973
O    -2.035508   -1.212920    0.048386    0.152797    0.381306   -0.028893
O     0.546349    2.280474   -0.180096    0.254517   -0.522839    0.051277
H     2.232179   -1.514639    0.190445   -0.515961    0.238958   -0.035986
H     0.074602   -2.026121    0.989488   -0.163360    0.348390   -0.054837
H    -1.678606    0.941847   -0.128131   -0.077113   -0.693576    0.056211
H     2.445584    1.167241   -0.033500   -0.426718    0.727720   -0.074764
H     0.118523   -2.165666   -0.622786   -0.164393    0.352726   -0.014948
13
* Frequency(14)  629.8344
C     1.562898    0.510971   -0.001181   -0.204742    0.335984   -0.034339
C     1.460857   -0.772255    0.106122   -0.303881    0.463531   -0.048107
N     0.136210   -1.453018    0.128753   -0.345175    0.427107   -0.046169
C    -0.886753   -0.836961    0.047453    0.587154   -0.310598    0.042977
N    -0.778205    0.468520   -0.062195    0.146285   -0.356866    0.035119
C     0.339524    1.123214   -0.087215   -0.276053   -0.464063    0.032973
O    -2.039830   -1.223705    0.049203    0.152797    0.381306   -0.028893
O     0.539150    2.295262   -0.181547    0.254517   -0.522839    0.051277
H     2.246773   -1.521398    0.191462   -0.515961    0.238958   -0.035986
H     0.079222   -2.035975    0.991039   -0.163360    0.348390   -0.054837
H    -1.676424    0.961464   -0.129721   -0.077113   -0.693576    0.056211
H     2.457653    1.146658   -0.031386   -0.426718    0.727720   -0.074764
H     0.123173   -2.175642   -0.622363   -0.164393    0.352726   -0.014948
13
* Frequency(14)  629.8344
C     1.575800    0.489799    0.000983   -0.204742    0.335984   -0.034339
C     1.480007   -0.801465    0.109154   -0.303881    0.463531   -0.048107
N     0.157962   -1.479933    0.131662   -0.345175    0.427107   -0.046169
C    -0.923753   -0.817388    0.044745    0.587154   -0.310598    0.042977
N    -0.787424    0.491009   -0.064408    0.146285   -0.356866    0.035119
C     0.356920    1.152458   -0.089293   -0.276053   -0.464063    0.032973
O    -2.049459   -1.247734    0.051024    0.152797    0.381306   -0.028893
O     0.523111    2.328210   -0.184778    0.254517   -0.522839    0.051277
H     2.279287   -1.536456    0.193730   -0.515961    0.238958   -0.035986
H     0.089517   -2.057930    0.994495   -0.163360    0.348390   -0.054837
H    -1.671565    1.005171   -0.133264   -0.077113   -0.693576    0.056211
H     2.484543    1.100800   -0.026674   -0.426718    0.727720   -0.074764
H     0.133532   -2.197870   -0.621421   -0.164393    0.352726   -0.014948
13
* Frequency(14)  629.8344
C     1.594416    0.459250    0.004105   -0.204742    0.335984   -0.034339
C     1.507636   -0.843610    0.113528   -0.303881    0.463531   -0.048107
N     0.189346   -1.518766    0.135860   -0.345175    0.427107   -0.046169
C    -0.977138   -0.789148    0.040837    0.587154   -0.310598    0.042977
N    -0.800724    0.523456   -0.067601    0.146285   -0.356866    0.035119
C     0.382020    1.194651   -0.092291   -0.276053   -0.464063    0.032973
O    -2.063351   -1.282403    0.053651    0.152797    0.381306   -0.028893
O     0.499970    2.375747   -0.189440    0.254517   -0.522839    0.051277
H     2.326199   -1.558183    0.197002   -0.515961    0.238958   -0.035986
H     0.104370   -2.089606    0.999481   -0.163360    0.348390   -0.054837
H    -1.664554    1.068232   -0.138374   -0.077113   -0.693576    0.056211
H     2.523341    1.034634   -0.019876   -0.426718    0.727720   -0.074764
H     0.148479   -2.229941   -0.620062   -0.164393    0.352726   -0.014948
13
* Frequency(14)  629.8344
C     1.616727    0.422637    0.007847   -0.204742    0.335984   -0.034339
C     1.540751   -0.894123    0.118770   -0.303881    0.463531   -0.048107
N     0.226961   -1.565310    0.140891   -0.345175    0.427107   -0.046169
C    -1.041123   -0.755301    0.036154    0.587154   -0.310598    0.042977
N    -0.816666    0.562345   -0.071428    0.146285   -0.356866    0.035119
C     0.412102    1.245222   -0.095885   -0.276053   -0.464063    0.032973
O    -2.080002   -1.323955    0.056800    0.152797    0.381306   -0.028893
O     0.472234    2.432723   -0.195028    0.254517   -0.522839    0.051277
H     2.382425   -1.584223    0.200924   -0.515961    0.238958   -0.035986
H     0.122171   -2.127571    1.005457   -0.163360    0.348390   -0.054837
H    -1.656150    1.143814   -0.144500   -0.077113   -0.693576    0.056211
H     2.569842    0.955332   -0.011729   -0.426718    0.727720   -0.074764
H     0.166394   -2.268379   -0.618433   -0.164393    0.352726   -0.014948
13
* Frequency(14)  629.8344
C     1.640317    0.383926    0.011804   -0.204742    0.335984   -0.034339
C     1.575763   -0.947529    0.124313   -0.303881    0.463531   -0.048107
N     0.266730   -1.614519    0.146211   -0.345175    0.427107   -0.046169
C    -1.108772   -0.719515    0.031202    0.587154   -0.310598    0.042977
N    -0.833520    0.603462   -0.075474    0.146285   -0.356866    0.035119
C     0.443908    1.298690   -0.099684   -0.276053   -0.464063    0.032973
O    -2.097607   -1.367888    0.060129    0.152797    0.381306   -0.028893
O     0.442910    2.492962   -0.200936    0.254517   -0.522839    0.051277
H     2.441872   -1.611755    0.205070   -0.515961    0.238958   -0.035986
H     0.140993   -2.167711    1.011775   -0.163360    0.348390   -0.054837
H    -1.647266    1.223725   -0.150976   -0.077113   -0.693576    0.056211
H     2.619007    0.871487   -0.003115   -0.426718    0.727720   -0.074764
H     0.185334   -2.309018   -0.616711   -0.164393    0.352726   -0.014948
13
* Frequency(14)  629.8344
C     1.662629    0.347313    0.015546   -0.204742    0.335984   -0.034339
C     1.608878   -0.998041    0.129555   -0.303881    0.463531   -0.048107
N     0.304345   -1.661063    0.151242   -0.345175    0.427107   -0.046169
C    -1.172756   -0.685668    0.026519    0.587154   -0.310598    0.042977
N    -0.849461    0.642351   -0.079301    0.146285   -0.356866    0.035119
C     0.473990    1.349260   -0.103277   -0.276053   -0.464063    0.032973
O    -2.114257   -1.409440    0.063277    0.152797    0.381306   -0.028893
O     0.415174    2.549938   -0.206524    0.254517   -0.522839    0.051277
H     2.498098   -1.637795    0.208991   -0.515961    0.238958   -0.035986
H     0.158795   -2.205677    1.017751   -0.163360    0.348390   -0.054837
H    -1.638862    1.299307   -0.157102   -0.077113   -0.693576    0.056211
H     2.665508    0.792184    0.005032   -0.426718    0.727720   -0.074764
H     0.203249   -2.347456   -0.615082   -0.164393    0.352726   -0.014948
13
* Frequency(14)  629.8344
C     1.681244    0.316765    0.018668   -0.204742    0.335984   -0.034339
C     1.636508   -1.040186    0.133929   -0.303881    0.463531   -0.048107
N     0.335729   -1.699896    0.155440   -0.345175    0.427107   -0.046169
C    -1.226142   -0.657428    0.022611    0.587154   -0.310598    0.042977
N    -0.862762    0.674798   -0.082494    0.146285   -0.356866    0.035119
C     0.499090    1.391454   -0.106275   -0.276053   -0.464063    0.032973
O    -2.128150   -1.444109    0.065904    0.152797    0.381306   -0.028893
O     0.392033    2.597475   -0.211186    0.254517   -0.522839    0.051277
H     2.545010   -1.659521    0.212263   -0.515961    0.238958   -0.035986
H     0.173648   -2.237353    1.022736   -0.163360    0.348390   -0.054837
H    -1.631851    1.362368   -0.162213   -0.077113   -0.693576    0.056211
H     2.704306    0.726019    0.011830   -0.426718    0.727720   -0.074764
H     0.218196   -2.379527   -0.613723   -0.164393    0.352726   -0.014948
13
* Frequency(14)  629.8344
C     1.694146    0.295592    0.020832   -0.204742    0.335984   -0.034339
C     1.655657   -1.069397    0.136961   -0.303881    0.463531   -0.048107
N     0.357481   -1.726811    0.158349   -0.345175    0.427107   -0.046169
C    -1.263142   -0.637855    0.019903    0.587154   -0.310598    0.042977
N    -0.871980    0.697286   -0.084707    0.146285   -0.356866    0.035119
C     0.516486    1.420698   -0.108353   -0.276053   -0.464063    0.032973
O    -2.137779   -1.468138    0.067725    0.152797    0.381306   -0.028893
O     0.375994    2.630423   -0.214418    0.254517   -0.522839    0.051277
H     2.577525   -1.674580    0.214531   -0.515961    0.238958   -0.035986
H     0.183942   -2.259308    1.026192   -0.163360    0.348390   -0.054837
H    -1.626992    1.406075   -0.165755   -0.077113   -0.693576    0.056211
H     2.731197    0.680160    0.016542   -0.426718    0.727720   -0.074764
H     0.228555   -2.401754   -0.612781   -0.164393    0.352726   -0.014948
13
* Frequency(14)  629.8344
C     1.699937    0.286089    0.021803   -0.204742    0.335984   -0.034339
C     1.664252   -1.082507    0.138321   -0.303881    0.463531   -0.048107
N     0.367244   -1.738891    0.159655   -0.345175    0.427107   -0.046169
C    -1.279749   -0.629070    0.018687    0.587154   -0.310598    0.042977
N    -0.876118    0.707380   -0.085701    0.146285   -0.356866    0.035119
C     0.524294    1.433823   -0.109285   -0.276053   -0.464063    0.032973
O    -2.142100   -1.478923    0.068542    0.152797    0.381306   -0.028893
O     0.368795    2.645211   -0.215868    0.254517   -0.522839    0.051277
H     2.592118   -1.681339    0.215549   -0.515961    0.238958   -0.035986
H     0.188563   -2.269162    1.027743   -0.163360    0.348390   -0.054837
H    -1.624810    1.425692   -0.167345   -0.077113   -0.693576    0.056211
H     2.743266    0.659577    0.018656   -0.426718    0.727720   -0.074764
H     0.233205   -2.411731   -0.612358   -0.164393    0.352726   -0.014948
13
* Frequency(14)  629.8344
C     1.697989    0.289286    0.021476   -0.204742    0.335984   -0.034339
C     1.661361   -1.078097    0.137864   -0.303881    0.463531   -0.048107
N     0.363960   -1.734828    0.159216   -0.345175    0.427107   -0.046169
C    -1.274163   -0.632025    0.019096    0.587154   -0.310598    0.042977
N    -0.874726    0.703985   -0.085367    0.146285   -0.356866    0.035119
C     0.521667    1.429408   -0.108972   -0.276053   -0.464063    0.032973
O    -2.140647   -1.475295    0.068267    0.152797    0.381306   -0.028893
O     0.371217    2.640237   -0.215380    0.254517   -0.522839    0.051277
H     2.587209   -1.679065    0.215206   -0.515961    0.238958   -0.035986
H     0.187009   -2.265847    1.027221   -0.163360    0.348390   -0.054837
H    -1.625544    1.419093   -0.166810   -0.077113   -0.693576    0.056211
H     2.739206    0.666501    0.017945   -0.426718    0.727720   -0.074764
H     0.231641   -2.408375   -0.612500   -0.164393    0.352726   -0.014948
13
* Frequency(14)  629.8344
C     1.688513    0.304835    0.019887   -0.204742    0.335984   -0.034339
C     1.647297   -1.056644    0.135637   -0.303881    0.463531   -0.048107
N     0.347985   -1.715060    0.157079   -0.345175    0.427107   -0.046169
C    -1.246988   -0.646400    0.021085    0.587154   -0.310598    0.042977
N    -0.867956    0.687468   -0.083741    0.146285   -0.356866    0.035119
C     0.508891    1.407930   -0.107445   -0.276053   -0.464063    0.032973
O    -2.133575   -1.457647    0.066930    0.152797    0.381306   -0.028893
O     0.382996    2.616039   -0.213007    0.254517   -0.522839    0.051277
H     2.563329   -1.668006    0.213541   -0.515961    0.238958   -0.035986
H     0.179448   -2.249723    1.024683   -0.163360    0.348390   -0.054837
H    -1.629113    1.386993   -0.164208   -0.077113   -0.693576    0.056211
H     2.719457    0.700181    0.014485   -0.426718    0.727720   -0.074764
H     0.224033   -2.392050   -0.613192   -0.164393    0.352726   -0.014948
13
* Frequency(14)  629.8344
C     1.672537    0.331054    0.017207   -0.204742    0.335984   -0.034339
C     1.623584   -1.020473    0.131883   -0.303881    0.463531   -0.048107
N     0.321049   -1.681732    0.153476   -0.345175    0.427107   -0.046169
C    -1.201171   -0.670637    0.024439    0.587154   -0.310598    0.042977
N    -0.856540    0.659621   -0.081001    0.146285   -0.356866    0.035119
C     0.487349    1.371718   -0.104872   -0.276053   -0.464063    0.032973
O    -2.121652   -1.427893    0.064676    0.152797    0.381306   -0.028893
O     0.402857    2.575240   -0.209006    0.254517   -0.522839    0.051277
H     2.523067   -1.649359    0.210733   -0.515961    0.238958   -0.035986
H     0.166700   -2.222536    1.020404   -0.163360    0.348390   -0.054837
H    -1.635131    1.332871   -0.159822   -0.077113   -0.693576    0.056211
H     2.686158    0.756968    0.008650   -0.426718    0.727720   -0.074764
H     0.211204   -2.364525   -0.614359   -0.164393    0.352726   -0.014948
13
* Frequency(14)  629.8344
C     1.651790    0.365099    0.013728   -0.204742    0.335984   -0.034339
C     1.592792   -0.973504    0.127009   -0.303881    0.463531   -0.048107
N     0.286073   -1.638453    0.148798   -0.345175    0.427107   -0.046169
C    -1.141674   -0.702110    0.028794    0.587154   -0.310598    0.042977
N    -0.841717    0.623459   -0.077442    0.146285   -0.356866    0.035119
C     0.459377    1.324694   -0.101531   -0.276053   -0.464063    0.032973
O    -2.106169   -1.389255    0.061748    0.152797    0.381306   -0.028893
O     0.428648    2.522261   -0.203810    0.254517   -0.522839    0.051277
H     2.470785   -1.625145    0.207086   -0.515961    0.238958   -0.035986
H     0.150147   -2.187234    1.014848   -0.163360    0.348390   -0.054837
H    -1.642944    1.262591   -0.154126   -0.077113   -0.693576    0.056211
H     2.642919    0.830708    0.001075   -0.426718    0.727720   -0.074764
H     0.194546   -2.328784   -0.615873   -0.164393    0.352726   -0.014948
13
* Frequency(14)  629.8344
C     1.628522    0.403282    0.009825   -0.204742    0.335984   -0.034339
C     1.558257   -0.920826    0.121541   -0.303881    0.463531   -0.048107
N     0.246846   -1.589915    0.143551   -0.345175    0.427107   -0.046169
C    -1.074947   -0.737408    0.033678    0.587154   -0.310598    0.042977
N    -0.825093    0.582903   -0.073451    0.146285   -0.356866    0.035119
C     0.428005    1.271956   -0.097784   -0.276053   -0.464063    0.032973
O    -2.088804   -1.345922    0.058464    0.152797    0.381306   -0.028893
O     0.457572    2.462843   -0.197982    0.254517   -0.522839    0.051277
H     2.412149   -1.597989    0.202997   -0.515961    0.238958   -0.035986
H     0.131582   -2.147641    1.008616   -0.163360    0.348390   -0.054837
H    -1.651708    1.183769   -0.147738   -0.077113   -0.693576    0.056211
H     2.594425    0.913409   -0.007422   -0.426718    0.727720   -0.074764
H     0.175864   -2.288698   -0.617572   -0.164393    0.352726   -0.014948
