13
* (null), Energy   -1000.0000000
C     1.372793    0.529851   -0.015036   -0.010221    0.015007   -0.001562
C     1.302724   -0.794210    0.095800    0.012383   -0.032140    0.003168
N    -0.008640   -1.463020    0.118827    0.016331    0.071982   -0.005705
C    -1.330555   -0.610659    0.008144   -1.181364   -1.055493    0.056241
N    -1.080705    0.709657   -0.097399    0.128571    0.291709   -0.021385
C     0.172593    1.398876   -0.122183    0.035829    0.123593   -0.009506
O    -2.344242   -1.219751    0.031049    0.803270    0.491811   -0.018952
O     0.201841    2.589695   -0.223265   -0.015884   -0.095633    0.007736
H     2.156844   -1.471062    0.176152    0.066180    0.015257    0.000307
H    -0.124198   -2.019917    0.984598   -0.299704    0.136704   -0.046896
H    -1.907129    1.310644   -0.173530   -0.337991   -0.347959    0.021089
H     2.338608    1.040183   -0.032851   -0.011284    0.019762   -0.002126
H    -0.080594   -2.162817   -0.641747   -0.304098    0.142676    0.006067
13
* Frequency(33) 1988.7204
C     1.371631    0.531557   -0.015214   -0.010221    0.015007   -0.001562
C     1.304131   -0.797862    0.096160    0.012383   -0.032140    0.003168
N    -0.006784   -1.454840    0.118179    0.016331    0.071982   -0.005705
C    -1.464811   -0.730610    0.014536   -1.181364   -1.055493    0.056241
N    -1.066094    0.742808   -0.099829    0.128571    0.291709   -0.021385
C     0.176665    1.412921   -0.123263    0.035829    0.123593   -0.009506
O    -2.252954   -1.163859    0.028895    0.803270    0.491811   -0.018952
O     0.200036    2.578827   -0.222386   -0.015884   -0.095633    0.007736
H     2.164365   -1.469328    0.176187    0.066180    0.015257    0.000307
H    -0.158257   -2.004381    0.979269   -0.299704    0.136704   -0.046896
H    -1.945540    1.271100   -0.171133   -0.337991   -0.347959    0.021089
H     2.337325    1.042429   -0.033093   -0.011284    0.019762   -0.002126
H    -0.115153   -2.146603   -0.641058   -0.304098    0.142676    0.006067
13
* Frequency(33) 1988.7204
C     1.370596    0.533077   -0.015372   -0.010221    0.015007   -0.001562
C     1.305386   -0.801119    0.096481    0.012383   -0.032140    0.003168
N    -0.005129   -1.447546    0.117601    0.016331    0.071982   -0.005705
C    -1.584519   -0.837563    0.020235   -1.181364   -1.055493    0.056241
N    -1.053065    0.772367   -0.101996    0.128571    0.291709   -0.021385
C     0.180296    1.425445   -0.124226    0.035829    0.123593   -0.009506
O    -2.171559   -1.114024    0.026974    0.803270    0.491811   -0.018952
O     0.198427    2.569137   -0.221602   -0.015884   -0.095633    0.007736
H     2.171071   -1.467782    0.176218    0.066180    0.015257    0.000307
H    -0.188626   -1.990529    0.974517   -0.299704    0.136704   -0.046896
H    -1.979788    1.235841   -0.168996   -0.337991   -0.347959    0.021089
H     2.336182    1.044431   -0.033309   -0.011284    0.019762   -0.002126
H    -0.145967   -2.132145   -0.640443   -0.304098    0.142676    0.006067
13
* Frequency(33) 1988.7204
C     1.369798    0.534248   -0.015494   -0.010221    0.015007   -0.001562
C     1.306352   -0.803627    0.096729    0.012383   -0.032140    0.003168
N    -0.003855   -1.441929    0.117156    0.016331    0.071982   -0.005705
C    -1.676705   -0.919927    0.024624   -1.181364   -1.055493    0.056241
N    -1.043033    0.795130   -0.103665    0.128571    0.291709   -0.021385
C     0.183092    1.435090   -0.124968    0.035829    0.123593   -0.009506
O    -2.108877   -1.075646    0.025496    0.803270    0.491811   -0.018952
O     0.197187    2.561674   -0.220998   -0.015884   -0.095633    0.007736
H     2.176235   -1.466591    0.176242    0.066180    0.015257    0.000307
H    -0.212013   -1.979861    0.970857   -0.299704    0.136704   -0.046896
H    -2.006163    1.208689   -0.167351   -0.337991   -0.347959    0.021089
H     2.335301    1.045973   -0.033474   -0.011284    0.019762   -0.002126
H    -0.169697   -2.121012   -0.639970   -0.304098    0.142676    0.006067
13
* Frequency(33) 1988.7204
C     1.369325    0.534943   -0.015566   -0.010221    0.015007   -0.001562
C     1.306926   -0.805114    0.096875    0.012383   -0.032140    0.003168
N    -0.003099   -1.438598    0.116892    0.016331    0.071982   -0.005705
C    -1.731381   -0.968777    0.027227   -1.181364   -1.055493    0.056241
N    -1.037082    0.808631   -0.104654    0.128571    0.291709   -0.021385
C     0.184750    1.440810   -0.125408    0.035829    0.123593   -0.009506
O    -2.071700   -1.052884    0.024618    0.803270    0.491811   -0.018952
O     0.196452    2.557248   -0.220640   -0.015884   -0.095633    0.007736
H     2.179298   -1.465885    0.176256    0.066180    0.015257    0.000307
H    -0.225884   -1.973534    0.968687   -0.299704    0.136704   -0.046896
H    -2.021806    1.192585   -0.166375   -0.337991   -0.347959    0.021089
H     2.334779    1.046888   -0.033573   -0.011284    0.019762   -0.002126
H    -0.183771   -2.114408   -0.639689   -0.304098    0.142676    0.006067
13
* Frequency(33) 1988.7204
C     1.369228    0.535086   -0.015581   -0.010221    0.015007   -0.001562
C     1.307043   -0.805420    0.096905    0.012383   -0.032140    0.003168
N    -0.002944   -1.437913    0.116837    0.016331    0.071982   -0.005705
C    -1.742621   -0.978820    0.027762   -1.181364   -1.055493    0.056241
N    -1.035859    0.811406   -0.104858    0.128571    0.291709   -0.021385
C     0.185091    1.441986   -0.125499    0.035829    0.123593   -0.009506
O    -2.064058   -1.048205    0.024438    0.803270    0.491811   -0.018952
O     0.196301    2.556338   -0.220566   -0.015884   -0.095633    0.007736
H     2.179928   -1.465740    0.176259    0.066180    0.015257    0.000307
H    -0.228736   -1.972234    0.968241   -0.299704    0.136704   -0.046896
H    -2.025022    1.189274   -0.166174   -0.337991   -0.347959    0.021089
H     2.334672    1.047076   -0.033593   -0.011284    0.019762   -0.002126
H    -0.186664   -2.113051   -0.639631   -0.304098    0.142676    0.006067
13
* Frequency(33) 1988.7204
C     1.369517    0.534661   -0.015537   -0.010221    0.015007   -0.001562
C     1.306693   -0.804511    0.096816    0.012383   -0.032140    0.003168
N    -0.003406   -1.439949    0.116999    0.016331    0.071982   -0.005705
C    -1.709207   -0.948966    0.026171   -1.181364   -1.055493    0.056241
N    -1.039495    0.803156   -0.104253    0.128571    0.291709   -0.021385
C     0.184077    1.438490   -0.125230    0.035829    0.123593   -0.009506
O    -2.086777   -1.062115    0.024974    0.803270    0.491811   -0.018952
O     0.196750    2.559043   -0.220785   -0.015884   -0.095633    0.007736
H     2.178056   -1.466172    0.176250    0.066180    0.015257    0.000307
H    -0.220259   -1.976100    0.969567   -0.299704    0.136704   -0.046896
H    -2.015462    1.199116   -0.166770   -0.337991   -0.347959    0.021089
H     2.334991    1.046517   -0.033533   -0.011284    0.019762   -0.002126
H    -0.178063   -2.117086   -0.639803   -0.304098    0.142676    0.006067
13
* Frequency(33) 1988.7204
C     1.370161    0.533716   -0.015438   -0.010221    0.015007   -0.001562
C     1.305913   -0.802486    0.096616    0.012383   -0.032140    0.003168
N    -0.004435   -1.444485    0.117358    0.016331    0.071982   -0.005705
C    -1.634761   -0.882452    0.022627   -1.181364   -1.055493    0.056241
N    -1.047597    0.784773   -0.102905    0.128571    0.291709   -0.021385
C     0.181819    1.430701   -0.124631    0.035829    0.123593   -0.009506
O    -2.137397   -1.093108    0.026168    0.803270    0.491811   -0.018952
O     0.197751    2.565069   -0.221273   -0.015884   -0.095633    0.007736
H     2.173885   -1.467133    0.176231    0.066180    0.015257    0.000307
H    -0.201372   -1.984715    0.972522   -0.299704    0.136704   -0.046896
H    -1.994163    1.221043   -0.168099   -0.337991   -0.347959    0.021089
H     2.335702    1.045271   -0.033399   -0.011284    0.019762   -0.002126
H    -0.158900   -2.126077   -0.640185   -0.304098    0.142676    0.006067
13
* Frequency(33) 1988.7204
C     1.371090    0.532351   -0.015296   -0.010221    0.015007   -0.001562
C     1.304787   -0.799563    0.096328    0.012383   -0.032140    0.003168
N    -0.005920   -1.451030    0.117877    0.016331    0.071982   -0.005705
C    -1.527349   -0.786485    0.017513   -1.181364   -1.055493    0.056241
N    -1.059287    0.758250   -0.100961    0.128571    0.291709   -0.021385
C     0.178562    1.419464   -0.123766    0.035829    0.123593   -0.009506
O    -2.210432   -1.137824    0.027892    0.803270    0.491811   -0.018952
O     0.199195    2.573765   -0.221976   -0.015884   -0.095633    0.007736
H     2.167868   -1.468520    0.176203    0.066180    0.015257    0.000307
H    -0.174123   -1.997144    0.976786   -0.299704    0.136704   -0.046896
H    -1.963432    1.252680   -0.170017   -0.337991   -0.347959    0.021089
H     2.336728    1.043475   -0.033206   -0.011284    0.019762   -0.002126
H    -0.131251   -2.139050   -0.640737   -0.304098    0.142676    0.006067
13
* Frequency(33) 1988.7204
C     1.372204    0.530716   -0.015126   -0.010221    0.015007   -0.001562
C     1.303437   -0.796061    0.095983    0.012383   -0.032140    0.003168
N    -0.007699   -1.458874    0.118499    0.016331    0.071982   -0.005705
C    -1.398612   -0.671464    0.011384   -1.181364   -1.055493    0.056241
N    -1.073298    0.726462   -0.098631    0.128571    0.291709   -0.021385
C     0.174657    1.405996   -0.122730    0.035829    0.123593   -0.009506
O    -2.297967   -1.191419    0.029957    0.803270    0.491811   -0.018952
O     0.200926    2.584186   -0.222819   -0.015884   -0.095633    0.007736
H     2.160656   -1.470183    0.176170    0.066180    0.015257    0.000307
H    -0.141463   -2.012041    0.981897   -0.299704    0.136704   -0.046896
H    -1.926600    1.290598   -0.172315   -0.337991   -0.347959    0.021089
H     2.337957    1.041321   -0.032974   -0.011284    0.019762   -0.002126
H    -0.098112   -2.154598   -0.641398   -0.304098    0.142676    0.006067
13
* Frequency(33) 1988.7204
C     1.373382    0.528987   -0.014946   -0.010221    0.015007   -0.001562
C     1.302011   -0.792358    0.095618    0.012383   -0.032140    0.003168
N    -0.009581   -1.467167    0.119156    0.016331    0.071982   -0.005705
C    -1.262499   -0.549854    0.004904   -1.181364   -1.055493    0.056241
N    -1.088112    0.692852   -0.096167    0.128571    0.291709   -0.021385
C     0.170529    1.391756   -0.121635    0.035829    0.123593   -0.009506
O    -2.390517   -1.248083    0.032141    0.803270    0.491811   -0.018952
O     0.202756    2.595205   -0.223710   -0.015884   -0.095633    0.007736
H     2.153031   -1.471941    0.176134    0.066180    0.015257    0.000307
H    -0.106932   -2.027792    0.987300   -0.299704    0.136704   -0.046896
H    -1.887658    1.330689   -0.174745   -0.337991   -0.347959    0.021089
H     2.339258    1.039044   -0.032729   -0.011284    0.019762   -0.002126
H    -0.063075   -2.171036   -0.642097   -0.304098    0.142676    0.006067
13
* Frequency(33) 1988.7204
C     1.374495    0.527351   -0.014776   -0.010221    0.015007   -0.001562
C     1.300661   -0.788856    0.095272    0.012383   -0.032140    0.003168
N    -0.011361   -1.475011    0.119777    0.016331    0.071982   -0.005705
C    -1.133762   -0.434833   -0.001224   -1.181364   -1.055493    0.056241
N    -1.102123    0.661064   -0.093836    0.128571    0.291709   -0.021385
C     0.166625    1.378287   -0.120599    0.035829    0.123593   -0.009506
O    -2.478052   -1.301678    0.034206    0.803270    0.491811   -0.018952
O     0.204487    2.605626   -0.224553   -0.015884   -0.095633    0.007736
H     2.145819   -1.473603    0.176101    0.066180    0.015257    0.000307
H    -0.074272   -2.042689    0.992410   -0.299704    0.136704   -0.046896
H    -1.850826    1.368607   -0.177043   -0.337991   -0.347959    0.021089
H     2.340487    1.036891   -0.032497   -0.011284    0.019762   -0.002126
H    -0.029936   -2.186584   -0.642758   -0.304098    0.142676    0.006067
13
* Frequency(33) 1988.7204
C     1.375425    0.525987   -0.014634   -0.010221    0.015007   -0.001562
C     1.299535   -0.785933    0.094984    0.012383   -0.032140    0.003168
N    -0.012845   -1.481556    0.120296    0.016331    0.071982   -0.005705
C    -1.026350   -0.338866   -0.006338   -1.181364   -1.055493    0.056241
N    -1.113812    0.634541   -0.091892    0.128571    0.291709   -0.021385
C     0.163367    1.367050   -0.119735    0.035829    0.123593   -0.009506
O    -2.551087   -1.346394    0.035929    0.803270    0.491811   -0.018952
O     0.205931    2.614321   -0.225257   -0.015884   -0.095633    0.007736
H     2.139802   -1.474990    0.176073    0.066180    0.015257    0.000307
H    -0.047023   -2.055119    0.996674   -0.299704    0.136704   -0.046896
H    -1.820095    1.400244   -0.178960   -0.337991   -0.347959    0.021089
H     2.341513    1.035094   -0.032304   -0.011284    0.019762   -0.002126
H    -0.002287   -2.199557   -0.643309   -0.304098    0.142676    0.006067
13
* Frequency(33) 1988.7204
C     1.376069    0.525041   -0.014536   -0.010221    0.015007   -0.001562
C     1.298755   -0.783908    0.094785    0.012383   -0.032140    0.003168
N    -0.013875   -1.486092    0.120656    0.016331    0.071982   -0.005705
C    -0.951904   -0.272352   -0.009882   -1.181364   -1.055493    0.056241
N    -1.121915    0.616158   -0.090544    0.128571    0.291709   -0.021385
C     0.161109    1.359262   -0.119136    0.035829    0.123593   -0.009506
O    -2.601706   -1.377386    0.037123    0.803270    0.491811   -0.018952
O     0.206932    2.620348   -0.225744   -0.015884   -0.095633    0.007736
H     2.135631   -1.475952    0.176053    0.066180    0.015257    0.000307
H    -0.028136   -2.063733    0.999629   -0.299704    0.136704   -0.046896
H    -1.798796    1.422172   -0.180289   -0.337991   -0.347959    0.021089
H     2.342224    1.033849   -0.032170   -0.011284    0.019762   -0.002126
H     0.016876   -2.208548   -0.643692   -0.304098    0.142676    0.006067
13
* Frequency(33) 1988.7204
C     1.376358    0.524616   -0.014491   -0.010221    0.015007   -0.001562
C     1.298405   -0.782999    0.094695    0.012383   -0.032140    0.003168
N    -0.014337   -1.488128    0.120817    0.016331    0.071982   -0.005705
C    -0.918490   -0.242498   -0.011473   -1.181364   -1.055493    0.056241
N    -1.125551    0.607908   -0.089939    0.128571    0.291709   -0.021385
C     0.160096    1.355766   -0.118867    0.035829    0.123593   -0.009506
O    -2.624426   -1.391297    0.037659    0.803270    0.491811   -0.018952
O     0.207382    2.623053   -0.225963   -0.015884   -0.095633    0.007736
H     2.133760   -1.476383    0.176045    0.066180    0.015257    0.000307
H    -0.019659   -2.067600    1.000956   -0.299704    0.136704   -0.046896
H    -1.789236    1.432013   -0.180886   -0.337991   -0.347959    0.021089
H     2.342543    1.033290   -0.032110   -0.011284    0.019762   -0.002126
H     0.025477   -2.212583   -0.643863   -0.304098    0.142676    0.006067
13
* Frequency(33) 1988.7204
C     1.376261    0.524759   -0.014506   -0.010221    0.015007   -0.001562
C     1.298522   -0.783305    0.094725    0.012383   -0.032140    0.003168
N    -0.014181   -1.487443    0.120763    0.016331    0.071982   -0.005705
C    -0.929730   -0.252541   -0.010938   -1.181364   -1.055493    0.056241
N    -1.124328    0.610683   -0.090143    0.128571    0.291709   -0.021385
C     0.160437    1.356942   -0.118957    0.035829    0.123593   -0.009506
O    -2.616783   -1.386617    0.037479    0.803270    0.491811   -0.018952
O     0.207230    2.622143   -0.225889   -0.015884   -0.095633    0.007736
H     2.134389   -1.476238    0.176048    0.066180    0.015257    0.000307
H    -0.022511   -2.066299    1.000509   -0.299704    0.136704   -0.046896
H    -1.792452    1.428703   -0.180685   -0.337991   -0.347959    0.021089
H     2.342436    1.033478   -0.032130   -0.011284    0.019762   -0.002126
H     0.022584   -2.211226   -0.643806   -0.304098    0.142676    0.006067
13
* Frequency(33) 1988.7204
C     1.375787    0.525454   -0.014578   -0.010221    0.015007   -0.001562
C     1.299095   -0.784792    0.094872    0.012383   -0.032140    0.003168
N    -0.013425   -1.484112    0.120499    0.016331    0.071982   -0.005705
C    -0.984406   -0.301391   -0.008335   -1.181364   -1.055493    0.056241
N    -1.118377    0.624184   -0.091133    0.128571    0.291709   -0.021385
C     0.162095    1.362662   -0.119397    0.035829    0.123593   -0.009506
O    -2.579607   -1.363856    0.036602    0.803270    0.491811   -0.018952
O     0.206495    2.617717   -0.225531   -0.015884   -0.095633    0.007736
H     2.137452   -1.475532    0.176062    0.066180    0.015257    0.000307
H    -0.036382   -2.059972    0.998339   -0.299704    0.136704   -0.046896
H    -1.808095    1.412598   -0.179709   -0.337991   -0.347959    0.021089
H     2.341914    1.034392   -0.032228   -0.011284    0.019762   -0.002126
H     0.008510   -2.204622   -0.643525   -0.304098    0.142676    0.006067
13
* Frequency(33) 1988.7204
C     1.374990    0.526625   -0.014700   -0.010221    0.015007   -0.001562
C     1.300062   -0.787300    0.095119    0.012383   -0.032140    0.003168
N    -0.012151   -1.478495    0.120054    0.016331    0.071982   -0.005705
C    -1.076592   -0.383755   -0.003946   -1.181364   -1.055493    0.056241
N    -1.108344    0.646947   -0.092801    0.128571    0.291709   -0.021385
C     0.164891    1.372306   -0.120139    0.035829    0.123593   -0.009506
O    -2.516924   -1.325478    0.035123    0.803270    0.491811   -0.018952
O     0.205256    2.610254   -0.224928   -0.015884   -0.095633    0.007736
H     2.142617   -1.474341    0.176086    0.066180    0.015257    0.000307
H    -0.059769   -2.049305    0.994680   -0.299704    0.136704   -0.046896
H    -1.834469    1.385446   -0.178063   -0.337991   -0.347959    0.021089
H     2.341033    1.035934   -0.032394   -0.011284    0.019762   -0.002126
H    -0.015220   -2.193489   -0.643051   -0.304098    0.142676    0.006067
13
* Frequency(33) 1988.7204
C     1.373954    0.528146   -0.014859   -0.010221    0.015007   -0.001562
C     1.301317   -0.790557    0.095440    0.012383   -0.032140    0.003168
N    -0.010496   -1.471201    0.119475    0.016331    0.071982   -0.005705
C    -1.196299   -0.490708    0.001753   -1.181364   -1.055493    0.056241
N    -1.095316    0.676506   -0.094968    0.128571    0.291709   -0.021385
C     0.168522    1.384830   -0.121102    0.035829    0.123593   -0.009506
O    -2.435529   -1.275643    0.033203    0.803270    0.491811   -0.018952
O     0.203646    2.600563   -0.224144   -0.015884   -0.095633    0.007736
H     2.149323   -1.472796    0.176117    0.066180    0.015257    0.000307
H    -0.090138   -2.035452    0.989928   -0.299704    0.136704   -0.046896
H    -1.868718    1.350187   -0.175926   -0.337991   -0.347959    0.021089
H     2.339890    1.037937   -0.032610   -0.011284    0.019762   -0.002126
H    -0.046034   -2.179031   -0.642437   -0.304098    0.142676    0.006067
13
* Frequency(33) 1988.7204
C     1.372793    0.529851   -0.015036   -0.010221    0.015007   -0.001562
C     1.302724   -0.794210    0.095800    0.012383   -0.032140    0.003168
N    -0.008640   -1.463020    0.118827    0.016331    0.071982   -0.005705
C    -1.330555   -0.610659    0.008144   -1.181364   -1.055493    0.056241
N    -1.080705    0.709657   -0.097399    0.128571    0.291709   -0.021385
C     0.172593    1.398876   -0.122183    0.035829    0.123593   -0.009506
O    -2.344242   -1.219751    0.031049    0.803270    0.491811   -0.018952
O     0.201841    2.589695   -0.223265   -0.015884   -0.095633    0.007736
H     2.156844   -1.471062    0.176152    0.066180    0.015257    0.000307
H    -0.124198   -2.019917    0.984598   -0.299704    0.136704   -0.046896
H    -1.907129    1.310644   -0.173530   -0.337991   -0.347959    0.021089
H     2.338608    1.040183   -0.032851   -0.011284    0.019762   -0.002126
H    -0.080594   -2.162817   -0.641747   -0.304098    0.142676    0.006067
