13
* (null), Energy   -1000.0000000
C     1.628522    0.403282    0.009825    0.088000   -0.947487    0.083663
C     1.558257   -0.920826    0.121541    0.133812    0.946800   -0.077732
N     0.246846   -1.589915    0.143551    0.033067   -0.081909    0.007983
C    -1.074947   -0.737408    0.033678   -0.061700    0.037805   -0.004972
N    -0.825093    0.582903   -0.073451   -0.002215   -0.042542    0.003597
C     0.428005    1.271956   -0.097784   -0.021147   -0.089603    0.006964
O    -2.088804   -1.345922    0.058464    0.042957    0.012413    0.000109
O     0.457572    2.462843   -0.197982   -0.017450    0.159800   -0.014040
H     2.412149   -1.597989    0.202997   -0.959276   -0.092220   -0.017701
H     0.131582   -2.147641    1.008616   -0.416112   -0.297427   -0.191199
H    -1.651708    1.183769   -0.147738    0.029103   -0.000921    0.000869
H     2.594425    0.913409   -0.007422   -0.715734    0.274062   -0.042905
H     0.175864   -2.288698   -0.617572   -0.427410   -0.262125    0.216725
13
* Frequency(31) 1739.7744
C     1.638523    0.295605    0.019333    0.088000   -0.947487    0.083663
C     1.573464   -0.813227    0.112708    0.133812    0.946800   -0.077732
N     0.250603   -1.599223    0.144458    0.033067   -0.081909    0.007983
C    -1.081959   -0.733112    0.033113   -0.061700    0.037805   -0.004972
N    -0.825345    0.578069   -0.073042   -0.002215   -0.042542    0.003597
C     0.425602    1.261773   -0.096993   -0.021147   -0.089603    0.006964
O    -2.083922   -1.344511    0.058477    0.042957    0.012413    0.000109
O     0.455589    2.481003   -0.199578   -0.017450    0.159800   -0.014040
H     2.303132   -1.608469    0.200985   -0.959276   -0.092220   -0.017701
H     0.084293   -2.181442    0.986887   -0.416112   -0.297427   -0.191199
H    -1.648401    1.183665   -0.147639    0.029103   -0.000921    0.000869
H     2.513085    0.944555   -0.012298   -0.715734    0.274062   -0.042905
H     0.127291   -2.318488   -0.592942   -0.427410   -0.262125    0.216725
13
* Frequency(31) 1739.7744
C     1.647440    0.199596    0.027811    0.088000   -0.947487    0.083663
C     1.587023   -0.717288    0.104831    0.133812    0.946800   -0.077732
N     0.253954   -1.607523    0.145267    0.033067   -0.081909    0.007983
C    -1.088211   -0.729281    0.032609   -0.061700    0.037805   -0.004972
N    -0.825569    0.573758   -0.072678   -0.002215   -0.042542    0.003597
C     0.423459    1.252694   -0.096287   -0.021147   -0.089603    0.006964
O    -2.079569   -1.343253    0.058488    0.042957    0.012413    0.000109
O     0.453821    2.497196   -0.201000   -0.017450    0.159800   -0.014040
H     2.205929   -1.617814    0.199191   -0.959276   -0.092220   -0.017701
H     0.042129   -2.211581    0.967513   -0.416112   -0.297427   -0.191199
H    -1.645452    1.183571   -0.147551    0.029103   -0.000921    0.000869
H     2.440560    0.972326   -0.016646   -0.715734    0.274062   -0.042905
H     0.083982   -2.345049   -0.570982   -0.427410   -0.262125    0.216725
13
* Frequency(31) 1739.7744
C     1.654307    0.125660    0.034339    0.088000   -0.947487    0.083663
C     1.597465   -0.643406    0.098765    0.133812    0.946800   -0.077732
N     0.256534   -1.613914    0.145890    0.033067   -0.081909    0.007983
C    -1.093026   -0.726331    0.032221   -0.061700    0.037805   -0.004972
N    -0.825742    0.570438   -0.072397   -0.002215   -0.042542    0.003597
C     0.421809    1.245702   -0.095744   -0.021147   -0.089603    0.006964
O    -2.076217   -1.342285    0.058496    0.042957    0.012413    0.000109
O     0.452459    2.509665   -0.202096   -0.017450    0.159800   -0.014040
H     2.131073   -1.625010    0.197810   -0.959276   -0.092220   -0.017701
H     0.009658   -2.234790    0.952593   -0.416112   -0.297427   -0.191199
H    -1.643181    1.183500   -0.147483    0.029103   -0.000921    0.000869
H     2.384709    0.993712   -0.019994   -0.715734    0.274062   -0.042905
H     0.050629   -2.365503   -0.554070   -0.427410   -0.262125    0.216725
13
* Frequency(31) 1739.7744
C     1.658380    0.081809    0.038211    0.088000   -0.947487    0.083663
C     1.603658   -0.599586    0.095168    0.133812    0.946800   -0.077732
N     0.258065   -1.617705    0.146260    0.033067   -0.081909    0.007983
C    -1.095882   -0.724581    0.031991   -0.061700    0.037805   -0.004972
N    -0.825844    0.568469   -0.072231   -0.002215   -0.042542    0.003597
C     0.420830    1.241555   -0.095421   -0.021147   -0.089603    0.006964
O    -2.074229   -1.341710    0.058501    0.042957    0.012413    0.000109
O     0.451651    2.517061   -0.202746   -0.017450    0.159800   -0.014040
H     2.086676   -1.629278    0.196991   -0.959276   -0.092220   -0.017701
H    -0.009600   -2.248556    0.943744   -0.416112   -0.297427   -0.191199
H    -1.641834    1.183457   -0.147443    0.029103   -0.000921    0.000869
H     2.351584    1.006396   -0.021979   -0.715734    0.274062   -0.042905
H     0.030848   -2.377635   -0.544039   -0.427410   -0.262125    0.216725
13
* Frequency(31) 1739.7744
C     1.659217    0.072794    0.039007    0.088000   -0.947487    0.083663
C     1.604932   -0.590578    0.094428    0.133812    0.946800   -0.077732
N     0.258379   -1.618485    0.146336    0.033067   -0.081909    0.007983
C    -1.096469   -0.724221    0.031943   -0.061700    0.037805   -0.004972
N    -0.825865    0.568065   -0.072196   -0.002215   -0.042542    0.003597
C     0.420629    1.240702   -0.095355   -0.021147   -0.089603    0.006964
O    -2.073820   -1.341592    0.058502    0.042957    0.012413    0.000109
O     0.451485    2.518582   -0.202879   -0.017450    0.159800   -0.014040
H     2.077549   -1.630156    0.196822   -0.959276   -0.092220   -0.017701
H    -0.013559   -2.251385    0.941925   -0.416112   -0.297427   -0.191199
H    -1.641557    1.183448   -0.147435    0.029103   -0.000921    0.000869
H     2.344774    1.009003   -0.022388   -0.715734    0.274062   -0.042905
H     0.026781   -2.380129   -0.541977   -0.427410   -0.262125    0.216725
13
* Frequency(31) 1739.7744
C     1.656728    0.099592    0.036641    0.088000   -0.947487    0.083663
C     1.601147   -0.617357    0.096627    0.133812    0.946800   -0.077732
N     0.257444   -1.616168    0.146110    0.033067   -0.081909    0.007983
C    -1.094724   -0.725291    0.032084   -0.061700    0.037805   -0.004972
N    -0.825803    0.569268   -0.072298   -0.002215   -0.042542    0.003597
C     0.421227    1.243236   -0.095552   -0.021147   -0.089603    0.006964
O    -2.075035   -1.341943    0.058499    0.042957    0.012413    0.000109
O     0.451979    2.514062   -0.202482   -0.017450    0.159800   -0.014040
H     2.104681   -1.627547    0.197323   -0.959276   -0.092220   -0.017701
H    -0.001790   -2.242973    0.947332   -0.416112   -0.297427   -0.191199
H    -1.642380    1.183474   -0.147460    0.029103   -0.000921    0.000869
H     2.365017    1.001252   -0.021174   -0.715734    0.274062   -0.042905
H     0.038870   -2.372715   -0.548107   -0.427410   -0.262125    0.216725
13
* Frequency(31) 1739.7744
C     1.651183    0.159301    0.031369    0.088000   -0.947487    0.083663
C     1.592714   -0.677022    0.101525    0.133812    0.946800   -0.077732
N     0.255360   -1.611006    0.145607    0.033067   -0.081909    0.007983
C    -1.090835   -0.727673    0.032397   -0.061700    0.037805   -0.004972
N    -0.825663    0.571949   -0.072525   -0.002215   -0.042542    0.003597
C     0.422559    1.248883   -0.095991   -0.021147   -0.089603    0.006964
O    -2.077743   -1.342725    0.058492    0.042957    0.012413    0.000109
O     0.453079    2.503992   -0.201597   -0.017450    0.159800   -0.014040
H     2.165132   -1.621736    0.198438   -0.959276   -0.092220   -0.017701
H     0.024432   -2.224230    0.959381   -0.416112   -0.297427   -0.191199
H    -1.644214    1.183532   -0.147514    0.029103   -0.000921    0.000869
H     2.410121    0.983981   -0.018470   -0.715734    0.274062   -0.042905
H     0.065804   -2.356196   -0.561765   -0.427410   -0.262125    0.216725
13
* Frequency(31) 1739.7744
C     1.643182    0.245448    0.023762    0.088000   -0.947487    0.083663
C     1.580548   -0.763106    0.108593    0.133812    0.946800   -0.077732
N     0.252354   -1.603559    0.144881    0.033067   -0.081909    0.007983
C    -1.085226   -0.731110    0.032850   -0.061700    0.037805   -0.004972
N    -0.825462    0.575817   -0.072852   -0.002215   -0.042542    0.003597
C     0.424482    1.257030   -0.096624   -0.021147   -0.089603    0.006964
O    -2.081648   -1.343854    0.058482    0.042957    0.012413    0.000109
O     0.454665    2.489462   -0.200321   -0.017450    0.159800   -0.014040
H     2.252351   -1.613351    0.200048   -0.959276   -0.092220   -0.017701
H     0.062266   -2.197187    0.976765   -0.416112   -0.297427   -0.191199
H    -1.646860    1.183616   -0.147593    0.029103   -0.000921    0.000869
H     2.475197    0.959063   -0.014569   -0.715734    0.274062   -0.042905
H     0.104665   -2.332364   -0.581470   -0.427410   -0.262125    0.216725
13
* Frequency(31) 1739.7744
C     1.633592    0.348699    0.014645    0.088000   -0.947487    0.083663
C     1.565966   -0.866282    0.117063    0.133812    0.946800   -0.077732
N     0.248750   -1.594633    0.144011    0.033067   -0.081909    0.007983
C    -1.078502   -0.735230    0.033391   -0.061700    0.037805   -0.004972
N    -0.825220    0.580453   -0.073244   -0.002215   -0.042542    0.003597
C     0.426787    1.266794   -0.097383   -0.021147   -0.089603    0.006964
O    -2.086330   -1.345207    0.058471    0.042957    0.012413    0.000109
O     0.456567    2.472048   -0.198791   -0.017450    0.159800   -0.014040
H     2.356886   -1.603301    0.201977   -0.959276   -0.092220   -0.017701
H     0.107611   -2.164776    0.997601   -0.416112   -0.297427   -0.191199
H    -1.650031    1.183716   -0.147688    0.029103   -0.000921    0.000869
H     2.553193    0.929197   -0.009894   -0.715734    0.274062   -0.042905
H     0.151242   -2.303799   -0.605087   -0.427410   -0.262125    0.216725
13
* Frequency(31) 1739.7744
C     1.623453    0.457864    0.005006    0.088000   -0.947487    0.083663
C     1.550549   -0.975369    0.126019    0.133812    0.946800   -0.077732
N     0.244941   -1.585196    0.143091    0.033067   -0.081909    0.007983
C    -1.071393   -0.739586    0.033964   -0.061700    0.037805   -0.004972
N    -0.824965    0.585354   -0.073658   -0.002215   -0.042542    0.003597
C     0.429223    1.277118   -0.098185   -0.021147   -0.089603    0.006964
O    -2.091279   -1.346637    0.058458    0.042957    0.012413    0.000109
O     0.458577    2.453637   -0.197173   -0.017450    0.159800   -0.014040
H     2.467411   -1.592676    0.204016   -0.959276   -0.092220   -0.017701
H     0.155554   -2.130507    1.019630   -0.416112   -0.297427   -0.191199
H    -1.653385    1.183823   -0.147788    0.029103   -0.000921    0.000869
H     2.635657    0.897621   -0.004950   -0.715734    0.274062   -0.042905
H     0.200486   -2.273598   -0.630057   -0.427410   -0.262125    0.216725
13
* Frequency(31) 1739.7744
C     1.613863    0.561115   -0.004111    0.088000   -0.947487    0.083663
C     1.535967   -1.078545    0.134490    0.133812    0.946800   -0.077732
N     0.241337   -1.576270    0.142221    0.033067   -0.081909    0.007983
C    -1.064669   -0.743706    0.034506   -0.061700    0.037805   -0.004972
N    -0.824724    0.589990   -0.074050   -0.002215   -0.042542    0.003597
C     0.431528    1.286882   -0.098944   -0.021147   -0.089603    0.006964
O    -2.095960   -1.347989    0.058446    0.042957    0.012413    0.000109
O     0.460479    2.436223   -0.195643   -0.017450    0.159800   -0.014040
H     2.571946   -1.582627    0.205945   -0.959276   -0.092220   -0.017701
H     0.200899   -2.098095    1.040466   -0.416112   -0.297427   -0.191199
H    -1.656556    1.183923   -0.147883    0.029103   -0.000921    0.000869
H     2.713653    0.867755   -0.000275   -0.715734    0.274062   -0.042905
H     0.247063   -2.245033   -0.653675   -0.427410   -0.262125    0.216725
13
* Frequency(31) 1739.7744
C     1.605862    0.647263   -0.011718    0.088000   -0.947487    0.083663
C     1.523800   -1.164630    0.141558    0.133812    0.946800   -0.077732
N     0.238331   -1.568823    0.141495    0.033067   -0.081909    0.007983
C    -1.059059   -0.747143    0.034958   -0.061700    0.037805   -0.004972
N    -0.824523    0.593858   -0.074377   -0.002215   -0.042542    0.003597
C     0.433450    1.295029   -0.099577   -0.021147   -0.089603    0.006964
O    -2.099866   -1.349118    0.058436    0.042957    0.012413    0.000109
O     0.462066    2.421694   -0.194367   -0.017450    0.159800   -0.014040
H     2.659165   -1.574242    0.207555   -0.959276   -0.092220   -0.017701
H     0.238732   -2.071053    1.057850   -0.416112   -0.297427   -0.191199
H    -1.659202    1.184007   -0.147962    0.029103   -0.000921    0.000869
H     2.778729    0.842837    0.003626   -0.715734    0.274062   -0.042905
H     0.285924   -2.221200   -0.673380   -0.427410   -0.262125    0.216725
13
* Frequency(31) 1739.7744
C     1.600316    0.706971   -0.016990    0.088000   -0.947487    0.083663
C     1.515368   -1.224295    0.146456    0.133812    0.946800   -0.077732
N     0.236247   -1.563661    0.140992    0.033067   -0.081909    0.007983
C    -1.055171   -0.749525    0.035272   -0.061700    0.037805   -0.004972
N    -0.824383    0.596539   -0.074604   -0.002215   -0.042542    0.003597
C     0.434783    1.300675   -0.100016   -0.021147   -0.089603    0.006964
O    -2.102573   -1.349900    0.058429    0.042957    0.012413    0.000109
O     0.463165    2.411623   -0.193482   -0.017450    0.159800   -0.014040
H     2.719616   -1.568430    0.208670   -0.959276   -0.092220   -0.017701
H     0.264955   -2.052310    1.069899   -0.416112   -0.297427   -0.191199
H    -1.661036    1.184065   -0.148017    0.029103   -0.000921    0.000869
H     2.823832    0.825567    0.006330   -0.715734    0.274062   -0.042905
H     0.312858   -2.204682   -0.687037   -0.427410   -0.262125    0.216725
13
* Frequency(31) 1739.7744
C     1.597827    0.733769   -0.019357    0.088000   -0.947487    0.083663
C     1.511583   -1.251074    0.148655    0.133812    0.946800   -0.077732
N     0.235312   -1.561344    0.140767    0.033067   -0.081909    0.007983
C    -1.053426   -0.750594    0.035412   -0.061700    0.037805   -0.004972
N    -0.824320    0.597742   -0.074706   -0.002215   -0.042542    0.003597
C     0.435381    1.303210   -0.100213   -0.021147   -0.089603    0.006964
O    -2.103788   -1.350251    0.058426    0.042957    0.012413    0.000109
O     0.463659    2.407104   -0.193085   -0.017450    0.159800   -0.014040
H     2.746749   -1.565822    0.209171   -0.959276   -0.092220   -0.017701
H     0.276724   -2.043897    1.075307   -0.416112   -0.297427   -0.191199
H    -1.661859    1.184091   -0.148041    0.029103   -0.000921    0.000869
H     2.844076    0.817815    0.007544   -0.715734    0.274062   -0.042905
H     0.324947   -2.197268   -0.693167   -0.427410   -0.262125    0.216725
13
* Frequency(31) 1739.7744
C     1.598665    0.724754   -0.018561    0.088000   -0.947487    0.083663
C     1.512856   -1.242066    0.147915    0.133812    0.946800   -0.077732
N     0.235626   -1.562124    0.140842    0.033067   -0.081909    0.007983
C    -1.054013   -0.750235    0.035365   -0.061700    0.037805   -0.004972
N    -0.824341    0.597338   -0.074671   -0.002215   -0.042542    0.003597
C     0.435180    1.302357   -0.100147   -0.021147   -0.089603    0.006964
O    -2.103379   -1.350133    0.058427    0.042957    0.012413    0.000109
O     0.463493    2.408624   -0.193219   -0.017450    0.159800   -0.014040
H     2.737622   -1.566700    0.209003   -0.959276   -0.092220   -0.017701
H     0.272765   -2.046727    1.073487   -0.416112   -0.297427   -0.191199
H    -1.661582    1.184082   -0.148033    0.029103   -0.000921    0.000869
H     2.837266    0.820423    0.007135   -0.715734    0.274062   -0.042905
H     0.320880   -2.199762   -0.691105   -0.427410   -0.262125    0.216725
13
* Frequency(31) 1739.7744
C     1.602737    0.680903   -0.014689    0.088000   -0.947487    0.083663
C     1.519049   -1.198246    0.144318    0.133812    0.946800   -0.077732
N     0.237157   -1.565915    0.141212    0.033067   -0.081909    0.007983
C    -1.056869   -0.748485    0.035135   -0.061700    0.037805   -0.004972
N    -0.824444    0.595369   -0.074505   -0.002215   -0.042542    0.003597
C     0.434201    1.298210   -0.099825   -0.021147   -0.089603    0.006964
O    -2.101391   -1.349559    0.058432    0.042957    0.012413    0.000109
O     0.462685    2.416020   -0.193869   -0.017450    0.159800   -0.014040
H     2.693224   -1.570968    0.208183   -0.959276   -0.092220   -0.017701
H     0.253506   -2.060493    1.064638   -0.416112   -0.297427   -0.191199
H    -1.660235    1.184039   -0.147993    0.029103   -0.000921    0.000869
H     2.804141    0.833107    0.005150   -0.715734    0.274062   -0.042905
H     0.301099   -2.211894   -0.681074   -0.427410   -0.262125    0.216725
13
* Frequency(31) 1739.7744
C     1.609604    0.606967   -0.008160    0.088000   -0.947487    0.083663
C     1.529491   -1.124363    0.138252    0.133812    0.946800   -0.077732
N     0.239737   -1.572306    0.141835    0.033067   -0.081909    0.007983
C    -1.061684   -0.745535    0.034747   -0.061700    0.037805   -0.004972
N    -0.824617    0.592049   -0.074224   -0.002215   -0.042542    0.003597
C     0.432551    1.291218   -0.099281   -0.021147   -0.089603    0.006964
O    -2.098039   -1.348590    0.058441    0.042957    0.012413    0.000109
O     0.461323    2.428490   -0.194964   -0.017450    0.159800   -0.014040
H     2.618368   -1.578164    0.206802   -0.959276   -0.092220   -0.017701
H     0.221036   -2.083702    1.049718   -0.416112   -0.297427   -0.191199
H    -1.657964    1.183968   -0.147925    0.029103   -0.000921    0.000869
H     2.748289    0.854493    0.001802   -0.715734    0.274062   -0.042905
H     0.267746   -2.232348   -0.664163   -0.427410   -0.262125    0.216725
13
* Frequency(31) 1739.7744
C     1.618522    0.510959    0.000318    0.088000   -0.947487    0.083663
C     1.543050   -1.028425    0.130375    0.133812    0.946800   -0.077732
N     0.243088   -1.580606    0.142644    0.033067   -0.081909    0.007983
C    -1.067936   -0.741704    0.034243   -0.061700    0.037805   -0.004972
N    -0.824841    0.587738   -0.073860   -0.002215   -0.042542    0.003597
C     0.430408    1.282139   -0.098575   -0.021147   -0.089603    0.006964
O    -2.093686   -1.347332    0.058452    0.042957    0.012413    0.000109
O     0.459555    2.444682   -0.196387   -0.017450    0.159800   -0.014040
H     2.521165   -1.587509    0.205008   -0.959276   -0.092220   -0.017701
H     0.178871   -2.113840    1.030344   -0.416112   -0.297427   -0.191199
H    -1.655015    1.183874   -0.147837    0.029103   -0.000921    0.000869
H     2.675764    0.882263   -0.002546   -0.715734    0.274062   -0.042905
H     0.224437   -2.258909   -0.642202   -0.427410   -0.262125    0.216725
13
* Frequency(31) 1739.7744
C     1.628522    0.403282    0.009825    0.088000   -0.947487    0.083663
C     1.558257   -0.920826    0.121541    0.133812    0.946800   -0.077732
N     0.246846   -1.589915    0.143551    0.033067   -0.081909    0.007983
C    -1.074947   -0.737408    0.033678   -0.061700    0.037805   -0.004972
N    -0.825093    0.582903   -0.073451   -0.002215   -0.042542    0.003597
C     0.428005    1.271956   -0.097784   -0.021147   -0.089603    0.006964
O    -2.088804   -1.345922    0.058464    0.042957    0.012413    0.000109
O     0.457572    2.462843   -0.197982   -0.017450    0.159800   -0.014040
H     2.412149   -1.597989    0.202997   -0.959276   -0.092220   -0.017701
H     0.131582   -2.147641    1.008616   -0.416112   -0.297427   -0.191199
H    -1.651708    1.183769   -0.147738    0.029103   -0.000921    0.000869
H     2.594425    0.913409   -0.007422   -0.715734    0.274062   -0.042905
H     0.175864   -2.288698   -0.617572   -0.427410   -0.262125    0.216725
