13
Coordinates from ORCA-job Uracil_1 E -414.568340822527
  C       1.338780      0.515080     -0.017080
  C       1.245260     -0.812400      0.092680
  N      -0.024150     -1.419660      0.116200
  C      -1.172370     -0.617430      0.008880
  N      -1.056250      0.719790     -0.106360
  C       0.138810      1.364060     -0.117600
  O      -2.193050     -1.270750      0.037880
  O       0.235340      2.577570     -0.204660
  H       2.150690     -1.416360      0.164630
  H      -0.217630     -1.982490      0.955840
  H      -1.894310      1.283150     -0.175340
  H       2.294440      1.030830     -0.037580
  H      -0.176220     -2.133920     -0.608930
13
Coordinates from ORCA-job Uracil_1 E -414.585513181607
  C       1.361286      0.522707     -0.016507
  C       1.282038     -0.805891      0.094195
  N      -0.016464     -1.444382      0.118710
  C      -1.242615     -0.619411      0.007073
  N      -1.076994      0.720425     -0.106117
  C       0.151868      1.381484     -0.118260
  O      -2.282400     -1.227617      0.031992
  O       0.231856      2.583855     -0.207427
  H       2.177503     -1.427588      0.166167
  H      -0.180328     -2.017110      0.973233
  H      -1.920037      1.297743     -0.177163
  H       2.320231      1.042544     -0.037874
  H      -0.136603     -2.169291     -0.619462
13
Coordinates from ORCA-job Uracil_1 E -414.590740236314
  C       1.370848      0.527100     -0.016268
  C       1.299117     -0.798683      0.094396
  N      -0.015043     -1.455817      0.119554
  C      -1.292615     -0.619902      0.006992
  N      -1.081176      0.715130     -0.104348
  C       0.163816      1.396335     -0.119943
  O      -2.323823     -1.209786      0.030721
  O       0.219687      2.588505     -0.211595
  H       2.172832     -1.450635      0.170050
  H      -0.149998     -2.023363      0.979996
  H      -1.921394      1.296556     -0.176564
  H       2.332685      1.044480     -0.036531
  H      -0.105596     -2.172450     -0.627901
13
Coordinates from ORCA-job Uracil_1 E -414.591765426544
  C       1.373300      0.529160     -0.015958
  C       1.304253     -0.794528      0.094751
  N      -0.013324     -1.460676      0.119611
  C      -1.318787     -0.617242      0.007912
  N      -1.079587      0.710985     -0.102146
  C       0.170745      1.402973     -0.120792
  O      -2.342663     -1.208907      0.030904
  O       0.209948      2.592649     -0.216123
  H       2.161215     -1.467766      0.173438
  H      -0.130577     -2.021914      0.983427
  H      -1.916259      1.297284     -0.175867
  H       2.337372      1.043002     -0.035342
  H      -0.086297     -2.167550     -0.635255
13
Coordinates from ORCA-job Uracil_1 E -414.591912122145
  C       1.373146      0.530075     -0.015892
  C       1.304066     -0.793342      0.095187
  N      -0.011915     -1.462262      0.119237
  C      -1.326464     -0.614108      0.008051
  N      -1.078488      0.709601     -0.100969
  C       0.172745      1.403072     -0.121803
  O      -2.346468     -1.212381      0.031906
  O       0.205136      2.593213     -0.218508
  H       2.155160     -1.473864      0.175458
  H      -0.124004     -2.020527      0.984678
  H      -1.912134      1.300495     -0.174987
  H       2.338321      1.041957     -0.034443
  H      -0.079762     -2.164457     -0.639356
13
Coordinates from ORCA-job Uracil_1 E -414.591949000681
  C       1.372780      0.530456     -0.015740
  C       1.303080     -0.793196      0.095687
  N      -0.010760     -1.462878      0.118889
  C      -1.328824     -0.611773      0.008269
  N      -1.078589      0.709346     -0.099892
  C       0.172985      1.401463     -0.121778
  O      -2.345783     -1.215730      0.032344
  O       0.202641      2.592078     -0.220706
  H       2.153140     -1.475075      0.176549
  H      -0.122319     -2.020009      0.984815
  H      -1.909411      1.304377     -0.174350
  H       2.338530      1.041142     -0.033961
  H      -0.078130     -2.162731     -0.641567
13
Coordinates from ORCA-job Uracil_1 E -414.591961536980
  C       1.372677      0.530425     -0.015673
  C       1.302503     -0.793473      0.095950
  N      -0.009894     -1.463060      0.118565
  C      -1.329515     -0.610779      0.008278
  N      -1.079369      0.709480     -0.099421
  C       0.172692      1.399868     -0.122623
  O      -2.344603     -1.217886      0.032949
  O       0.201822      2.590828     -0.221662
  H       2.153743     -1.473927      0.177232
  H      -0.122725     -2.020028      0.984368
  H      -1.908057      1.307540     -0.173692
  H       2.338623      1.040589     -0.033269
  H      -0.078555     -2.162106     -0.642442
13
Coordinates from ORCA-job Uracil_1 E -414.591956021006
  C       1.372767      0.530230     -0.015475
  C       1.302422     -0.793823      0.096244
  N      -0.009212     -1.463110      0.118428
  C      -1.330073     -0.610550      0.008414
  N      -1.080245      0.709641     -0.098767
  C       0.172398      1.398991     -0.122110
  O      -2.344159     -1.219023      0.032859
  O       0.201764      2.589879     -0.223083
  H       2.155277     -1.472310      0.177471
  H      -0.123560     -2.020463      0.983802
  H      -1.907460      1.309667     -0.173356
  H       2.338745      1.040222     -0.033138
  H      -0.079324     -2.161882     -0.642729
13
Coordinates from ORCA-job Uracil_1 E -414.591949061215
  C       1.372882      0.530028     -0.015418
  C       1.302616     -0.794079      0.096298
  N      -0.008795     -1.463168      0.118308
  C      -1.330588     -0.610661      0.008435
  N      -1.080734      0.709650     -0.098694
  C       0.172364      1.398702     -0.123027
  O      -2.344445     -1.219175      0.033221
  O       0.201931      2.589589     -0.223225
  H       2.156508     -1.471242      0.177753
  H      -0.124058     -2.020895      0.983372
  H      -1.907349      1.310516     -0.172981
  H       2.338784      1.040156     -0.032665
  H      -0.079777     -2.161952     -0.642815
