13
* (null), Energy   -1000.0000000
C     1.372793    0.529851   -0.015036   -0.078674   -0.001746   -0.001969
C     1.302724   -0.794210    0.095800    0.158161    0.058552   -0.000904
N    -0.008640   -1.463020    0.118827   -0.278065   -0.014181   -0.006112
C    -1.330555   -0.610659    0.008144   -0.131957    0.216340   -0.022570
N    -1.080705    0.709657   -0.097399    0.065431   -0.062606    0.007163
C     0.172593    1.398876   -0.122183   -0.004029    0.016457   -0.001410
O    -2.344242   -1.219751    0.031049    0.105641    0.004755    0.002674
O     0.201841    2.589695   -0.223265    0.001761   -0.032831    0.002859
H     2.156844   -1.471062    0.176152   -0.072864   -0.251924    0.019693
H    -0.124198   -2.019917    0.984598    1.147588   -0.256723    0.015287
H    -1.907129    1.310644   -0.173530   -0.434226   -0.756079    0.052568
H     2.338608    1.040183   -0.032851    0.135110   -0.423833    0.039660
H    -0.080594   -2.162817   -0.641747    1.147642   -0.249628    0.090353
13
* Frequency(27) 1354.7860
C     1.363852    0.529653   -0.015260   -0.078674   -0.001746   -0.001969
C     1.320698   -0.787555    0.095697    0.158161    0.058552   -0.000904
N    -0.040241   -1.464632    0.118133   -0.278065   -0.014181   -0.006112
C    -1.345552   -0.586073    0.005579   -0.131957    0.216340   -0.022570
N    -1.073269    0.702542   -0.096585    0.065431   -0.062606    0.007163
C     0.172135    1.400746   -0.122343   -0.004029    0.016457   -0.001410
O    -2.332236   -1.219210    0.031353    0.105641    0.004755    0.002674
O     0.202041    2.585964   -0.222940    0.001761   -0.032831    0.002859
H     2.148563   -1.499692    0.178390   -0.072864   -0.251924    0.019693
H     0.006220   -2.049092    0.986336    1.147588   -0.256723    0.015287
H    -1.956476    1.224719   -0.167556   -0.434226   -0.756079    0.052568
H     2.353962    0.992016   -0.028344    0.135110   -0.423833    0.039660
H     0.049830   -2.191186   -0.631479    1.147642   -0.249628    0.090353
13
* Frequency(27) 1354.7860
C     1.355880    0.529476   -0.015459   -0.078674   -0.001746   -0.001969
C     1.336724   -0.781622    0.095606    0.158161    0.058552   -0.000904
N    -0.068417   -1.466069    0.117513   -0.278065   -0.014181   -0.006112
C    -1.358923   -0.564152    0.003292   -0.131957    0.216340   -0.022570
N    -1.066639    0.696198   -0.095859    0.065431   -0.062606    0.007163
C     0.171727    1.402414   -0.122486   -0.004029    0.016457   -0.001410
O    -2.321532   -1.218729    0.031624    0.105641    0.004755    0.002674
O     0.202220    2.582638   -0.222650    0.001761   -0.032831    0.002859
H     2.141180   -1.525219    0.180385   -0.072864   -0.251924    0.019693
H     0.122505   -2.075106    0.987885    1.147588   -0.256723    0.015287
H    -2.000476    1.148106   -0.162229   -0.434226   -0.756079    0.052568
H     2.367653    0.949070   -0.024325    0.135110   -0.423833    0.039660
H     0.166120   -2.216481   -0.622324    1.147642   -0.249628    0.090353
13
* Frequency(27) 1354.7860
C     1.349741    0.529340   -0.015613   -0.078674   -0.001746   -0.001969
C     1.349066   -0.777053    0.095535    0.158161    0.058552   -0.000904
N    -0.090115   -1.467176    0.117036   -0.278065   -0.014181   -0.006112
C    -1.369220   -0.547270    0.001531   -0.131957    0.216340   -0.022570
N    -1.061533    0.691313   -0.095300    0.065431   -0.062606    0.007163
C     0.171413    1.403698   -0.122596   -0.004029    0.016457   -0.001410
O    -2.313288   -1.218358    0.031832    0.105641    0.004755    0.002674
O     0.202357    2.580076   -0.222427    0.001761   -0.032831    0.002859
H     2.135494   -1.544878    0.181922   -0.072864   -0.251924    0.019693
H     0.212055   -2.095139    0.989077    1.147588   -0.256723    0.015287
H    -2.034361    1.089106   -0.158127   -0.434226   -0.756079    0.052568
H     2.378196    0.915996   -0.021231    0.135110   -0.423833    0.039660
H     0.255675   -2.235960   -0.615273    1.147642   -0.249628    0.090353
13
* Frequency(27) 1354.7860
C     1.346100    0.529259   -0.015704   -0.078674   -0.001746   -0.001969
C     1.356386   -0.774343    0.095493    0.158161    0.058552   -0.000904
N    -0.102985   -1.467832    0.116753   -0.278065   -0.014181   -0.006112
C    -1.375327   -0.537257    0.000487   -0.131957    0.216340   -0.022570
N    -1.058505    0.688415   -0.094968    0.065431   -0.062606    0.007163
C     0.171226    1.404460   -0.122661   -0.004029    0.016457   -0.001410
O    -2.308399   -1.218137    0.031956    0.105641    0.004755    0.002674
O     0.202439    2.578556   -0.222295    0.001761   -0.032831    0.002859
H     2.132121   -1.556537    0.182833   -0.072864   -0.251924    0.019693
H     0.265168   -2.107020    0.989785    1.147588   -0.256723    0.015287
H    -2.054457    1.054113   -0.155694   -0.434226   -0.756079    0.052568
H     2.384449    0.896380   -0.019395    0.135110   -0.423833    0.039660
H     0.308790   -2.247513   -0.611092    1.147642   -0.249628    0.090353
13
* Frequency(27) 1354.7860
C     1.345351    0.529242   -0.015723   -0.078674   -0.001746   -0.001969
C     1.357891   -0.773786    0.095485    0.158161    0.058552   -0.000904
N    -0.105630   -1.467967    0.116695   -0.278065   -0.014181   -0.006112
C    -1.376583   -0.535199    0.000272   -0.131957    0.216340   -0.022570
N    -1.057882    0.687820   -0.094900    0.065431   -0.062606    0.007163
C     0.171188    1.404616   -0.122675   -0.004029    0.016457   -0.001410
O    -2.307394   -1.218092    0.031981    0.105641    0.004755    0.002674
O     0.202455    2.578244   -0.222268    0.001761   -0.032831    0.002859
H     2.131428   -1.558934    0.183021   -0.072864   -0.251924    0.019693
H     0.276087   -2.109463    0.989930    1.147588   -0.256723    0.015287
H    -2.058589    1.046920   -0.155194   -0.434226   -0.756079    0.052568
H     2.385735    0.892348   -0.019018    0.135110   -0.423833    0.039660
H     0.319709   -2.249888   -0.610232    1.147642   -0.249628    0.090353
13
* Frequency(27) 1354.7860
C     1.347576    0.529291   -0.015667   -0.078674   -0.001746   -0.001969
C     1.353418   -0.775442    0.095510    0.158161    0.058552   -0.000904
N    -0.097766   -1.467566    0.116868   -0.278065   -0.014181   -0.006112
C    -1.372850   -0.541318    0.000910   -0.131957    0.216340   -0.022570
N    -1.059733    0.689591   -0.095103    0.065431   -0.062606    0.007163
C     0.171302    1.404151   -0.122635   -0.004029    0.016457   -0.001410
O    -2.310382   -1.218227    0.031906    0.105641    0.004755    0.002674
O     0.202406    2.579172   -0.222348    0.001761   -0.032831    0.002859
H     2.133489   -1.551809    0.182464   -0.072864   -0.251924    0.019693
H     0.243628   -2.102202    0.989498    1.147588   -0.256723    0.015287
H    -2.046307    1.068305   -0.156681   -0.434226   -0.756079    0.052568
H     2.381913    0.904336   -0.020139    0.135110   -0.423833    0.039660
H     0.287249   -2.242828   -0.612787    1.147642   -0.249628    0.090353
13
* Frequency(27) 1354.7860
C     1.352534    0.529402   -0.015543   -0.078674   -0.001746   -0.001969
C     1.343451   -0.779132    0.095567    0.158161    0.058552   -0.000904
N    -0.080243   -1.466672    0.117253   -0.278065   -0.014181   -0.006112
C    -1.364535   -0.554951    0.002333   -0.131957    0.216340   -0.022570
N    -1.063856    0.693536   -0.095554    0.065431   -0.062606    0.007163
C     0.171556    1.403114   -0.122546   -0.004029    0.016457   -0.001410
O    -2.317039   -1.218526    0.031737    0.105641    0.004755    0.002674
O     0.202295    2.581241   -0.222529    0.001761   -0.032831    0.002859
H     2.138081   -1.535933    0.181223   -0.072864   -0.251924    0.019693
H     0.171310   -2.086024    0.988535    1.147588   -0.256723    0.015287
H    -2.018943    1.115951   -0.159993   -0.434226   -0.756079    0.052568
H     2.373399    0.931044   -0.022639    0.135110   -0.423833    0.039660
H     0.214928   -2.227097   -0.618481    1.147642   -0.249628    0.090353
13
* Frequency(27) 1354.7860
C     1.359687    0.529560   -0.015364   -0.078674   -0.001746   -0.001969
C     1.329071   -0.784456    0.095650    0.158161    0.058552   -0.000904
N    -0.054961   -1.465383    0.117809   -0.278065   -0.014181   -0.006112
C    -1.352537   -0.574621    0.004385   -0.131957    0.216340   -0.022570
N    -1.069805    0.699228   -0.096205    0.065431   -0.062606    0.007163
C     0.171922    1.401617   -0.122418   -0.004029    0.016457   -0.001410
O    -2.326644   -1.218959    0.031494    0.105641    0.004755    0.002674
O     0.202135    2.584226   -0.222789    0.001761   -0.032831    0.002859
H     2.144706   -1.513028    0.179432   -0.072864   -0.251924    0.019693
H     0.066970   -2.062682    0.987145    1.147588   -0.256723    0.015287
H    -1.979463    1.184695   -0.164773   -0.434226   -0.756079    0.052568
H     2.361114    0.969580   -0.026245    0.135110   -0.423833    0.039660
H     0.110582   -2.204400   -0.626696    1.147642   -0.249628    0.090353
13
* Frequency(27) 1354.7860
C     1.368261    0.529751   -0.015150   -0.078674   -0.001746   -0.001969
C     1.311835   -0.790836    0.095748    0.158161    0.058552   -0.000904
N    -0.024659   -1.463837    0.118475   -0.278065   -0.014181   -0.006112
C    -1.338157   -0.598196    0.006844   -0.131957    0.216340   -0.022570
N    -1.076936    0.706050   -0.096986    0.065431   -0.062606    0.007163
C     0.172361    1.399824   -0.122264   -0.004029    0.016457   -0.001410
O    -2.338156   -1.219477    0.031203    0.105641    0.004755    0.002674
O     0.201943    2.587804   -0.223100    0.001761   -0.032831    0.002859
H     2.152646   -1.485575    0.177286   -0.072864   -0.251924    0.019693
H    -0.058087   -2.034706    0.985479    1.147588   -0.256723    0.015287
H    -1.932144    1.267087   -0.170501   -0.434226   -0.756079    0.052568
H     2.346391    1.015767   -0.030567    0.135110   -0.423833    0.039660
H    -0.014480   -2.177198   -0.636542    1.147642   -0.249628    0.090353
13
* Frequency(27) 1354.7860
C     1.377325    0.529952   -0.014923   -0.078674   -0.001746   -0.001969
C     1.293613   -0.797583    0.095852    0.158161    0.058552   -0.000904
N     0.007379   -1.462203    0.119179   -0.278065   -0.014181   -0.006112
C    -1.322954   -0.623122    0.009445   -0.131957    0.216340   -0.022570
N    -1.084474    0.713264   -0.097811    0.065431   -0.062606    0.007163
C     0.172825    1.397928   -0.122102   -0.004029    0.016457   -0.001410
O    -2.350328   -1.220025    0.030895    0.105641    0.004755    0.002674
O     0.201740    2.591587   -0.223429    0.001761   -0.032831    0.002859
H     2.161041   -1.456549    0.175017   -0.072864   -0.251924    0.019693
H    -0.190308   -2.005127    0.983718    1.147588   -0.256723    0.015287
H    -1.882114    1.354200   -0.176558   -0.434226   -0.756079    0.052568
H     2.330824    1.064599   -0.035136    0.135110   -0.423833    0.039660
H    -0.146707   -2.148436   -0.646952    1.147642   -0.249628    0.090353
13
* Frequency(27) 1354.7860
C     1.385898    0.530142   -0.014708   -0.078674   -0.001746   -0.001969
C     1.276377   -0.803963    0.095951    0.158161    0.058552   -0.000904
N     0.037680   -1.460658    0.119845   -0.278065   -0.014181   -0.006112
C    -1.308574   -0.646697    0.011904   -0.131957    0.216340   -0.022570
N    -1.091605    0.720086   -0.098592    0.065431   -0.062606    0.007163
C     0.173264    1.396134   -0.121948   -0.004029    0.016457   -0.001410
O    -2.361840   -1.220543    0.030603    0.105641    0.004755    0.002674
O     0.201548    2.595164   -0.223741    0.001761   -0.032831    0.002859
H     2.168981   -1.429096    0.172871   -0.072864   -0.251924    0.019693
H    -0.315365   -1.977151    0.982052    1.147588   -0.256723    0.015287
H    -1.834795    1.436593   -0.182287   -0.434226   -0.756079    0.052568
H     2.316101    1.110785   -0.039458    0.135110   -0.423833    0.039660
H    -0.271770   -2.121234   -0.656798    1.147642   -0.249628    0.090353
13
* Frequency(27) 1354.7860
C     1.393051    0.530301   -0.014529   -0.078674   -0.001746   -0.001969
C     1.261997   -0.809287    0.096033    0.158161    0.058552   -0.000904
N     0.062962   -1.459369    0.120401   -0.278065   -0.014181   -0.006112
C    -1.296576   -0.666367    0.013956   -0.131957    0.216340   -0.022570
N    -1.097554    0.725778   -0.099243    0.065431   -0.062606    0.007163
C     0.173631    1.394638   -0.121820   -0.004029    0.016457   -0.001410
O    -2.371445   -1.220975    0.030360    0.105641    0.004755    0.002674
O     0.201388    2.598149   -0.224001    0.001761   -0.032831    0.002859
H     2.175606   -1.406190    0.171081   -0.072864   -0.251924    0.019693
H    -0.419705   -1.953810    0.980662    1.147588   -0.256723    0.015287
H    -1.795314    1.505337   -0.187066   -0.434226   -0.756079    0.052568
H     2.303816    1.149321   -0.043064    0.135110   -0.423833    0.039660
H    -0.376115   -2.098537   -0.665013    1.147642   -0.249628    0.090353
13
* Frequency(27) 1354.7860
C     1.398009    0.530411   -0.014405   -0.078674   -0.001746   -0.001969
C     1.252030   -0.812977    0.096090    0.158161    0.058552   -0.000904
N     0.080485   -1.458475    0.120786   -0.278065   -0.014181   -0.006112
C    -1.288261   -0.680001    0.015379   -0.131957    0.216340   -0.022570
N    -1.101677    0.729723   -0.099695    0.065431   -0.062606    0.007163
C     0.173885    1.393601   -0.121731   -0.004029    0.016457   -0.001410
O    -2.378102   -1.221275    0.030192    0.105641    0.004755    0.002674
O     0.201277    2.600218   -0.224181    0.001761   -0.032831    0.002859
H     2.180198   -1.390315    0.169840   -0.072864   -0.251924    0.019693
H    -0.492023   -1.937632    0.979698    1.147588   -0.256723    0.015287
H    -1.767950    1.552983   -0.190379   -0.434226   -0.756079    0.052568
H     2.295302    1.176030   -0.045563    0.135110   -0.423833    0.039660
H    -0.448437   -2.082806   -0.670707    1.147642   -0.249628    0.090353
13
* Frequency(27) 1354.7860
C     1.400234    0.530460   -0.014349   -0.078674   -0.001746   -0.001969
C     1.247557   -0.814633    0.096116    0.158161    0.058552   -0.000904
N     0.088350   -1.458074    0.120959   -0.278065   -0.014181   -0.006112
C    -1.284528   -0.686119    0.016017   -0.131957    0.216340   -0.022570
N    -1.103528    0.731494   -0.099897    0.065431   -0.062606    0.007163
C     0.173999    1.393135   -0.121691   -0.004029    0.016457   -0.001410
O    -2.381090   -1.221410    0.030116    0.105641    0.004755    0.002674
O     0.201227    2.601147   -0.224262    0.001761   -0.032831    0.002859
H     2.182259   -1.383189    0.169283   -0.072864   -0.251924    0.019693
H    -0.524482   -1.930371    0.979266    1.147588   -0.256723    0.015287
H    -1.755669    1.574368   -0.191866   -0.434226   -0.756079    0.052568
H     2.291480    1.188018   -0.046685    0.135110   -0.423833    0.039660
H    -0.480896   -2.075746   -0.673263    1.147642   -0.249628    0.090353
13
* Frequency(27) 1354.7860
C     1.399486    0.530443   -0.014368   -0.078674   -0.001746   -0.001969
C     1.249062   -0.814076    0.096107    0.158161    0.058552   -0.000904
N     0.085704   -1.458209    0.120901   -0.278065   -0.014181   -0.006112
C    -1.285784   -0.684061    0.015802   -0.131957    0.216340   -0.022570
N    -1.102905    0.730898   -0.099829    0.065431   -0.062606    0.007163
C     0.173960    1.393292   -0.121704   -0.004029    0.016457   -0.001410
O    -2.380085   -1.221364    0.030142    0.105641    0.004755    0.002674
O     0.201244    2.600834   -0.224235    0.001761   -0.032831    0.002859
H     2.181566   -1.385586    0.169470   -0.072864   -0.251924    0.019693
H    -0.513563   -1.932813    0.979411    1.147588   -0.256723    0.015287
H    -1.759800    1.567174   -0.191365   -0.434226   -0.756079    0.052568
H     2.292766    1.183985   -0.046308    0.135110   -0.423833    0.039660
H    -0.469977   -2.078121   -0.672403    1.147642   -0.249628    0.090353
13
* Frequency(27) 1354.7860
C     1.395845    0.530363   -0.014459   -0.078674   -0.001746   -0.001969
C     1.256382   -0.811366    0.096065    0.158161    0.058552   -0.000904
N     0.072835   -1.458865    0.120618   -0.278065   -0.014181   -0.006112
C    -1.291891   -0.674048    0.014758   -0.131957    0.216340   -0.022570
N    -1.099877    0.728001   -0.099497    0.065431   -0.062606    0.007163
C     0.173774    1.394054   -0.121770   -0.004029    0.016457   -0.001410
O    -2.375196   -1.221144    0.030265    0.105641    0.004755    0.002674
O     0.201325    2.599315   -0.224102    0.001761   -0.032831    0.002859
H     2.178193   -1.397246    0.170382   -0.072864   -0.251924    0.019693
H    -0.460450   -1.944695    0.980119    1.147588   -0.256723    0.015287
H    -1.779897    1.532181   -0.188933   -0.434226   -0.756079    0.052568
H     2.299019    1.164369   -0.044472    0.135110   -0.423833    0.039660
H    -0.416862   -2.089674   -0.668221    1.147642   -0.249628    0.090353
13
* Frequency(27) 1354.7860
C     1.389706    0.530226   -0.014613   -0.078674   -0.001746   -0.001969
C     1.268723   -0.806797    0.095995    0.158161    0.058552   -0.000904
N     0.051137   -1.459972    0.120141   -0.278065   -0.014181   -0.006112
C    -1.302188   -0.657167    0.012996   -0.131957    0.216340   -0.022570
N    -1.094771    0.723116   -0.098939    0.065431   -0.062606    0.007163
C     0.173459    1.395338   -0.121880   -0.004029    0.016457   -0.001410
O    -2.366952   -1.220773    0.030474    0.105641    0.004755    0.002674
O     0.201463    2.596753   -0.223879    0.001761   -0.032831    0.002859
H     2.172508   -1.416904    0.171918   -0.072864   -0.251924    0.019693
H    -0.370900   -1.964728    0.981312    1.147588   -0.256723    0.015287
H    -1.813781    1.473181   -0.184830   -0.434226   -0.756079    0.052568
H     2.309562    1.131296   -0.041377    0.135110   -0.423833    0.039660
H    -0.327307   -2.109153   -0.661171    1.147642   -0.249628    0.090353
13
* Frequency(27) 1354.7860
C     1.381734    0.530050   -0.014812   -0.078674   -0.001746   -0.001969
C     1.284750   -0.800864    0.095903    0.158161    0.058552   -0.000904
N     0.022960   -1.461409    0.119522   -0.278065   -0.014181   -0.006112
C    -1.315559   -0.635245    0.010709   -0.131957    0.216340   -0.022570
N    -1.088141    0.716772   -0.098213    0.065431   -0.062606    0.007163
C     0.173051    1.397006   -0.122023   -0.004029    0.016457   -0.001410
O    -2.356247   -1.220291    0.030745    0.105641    0.004755    0.002674
O     0.201641    2.593426   -0.223590    0.001761   -0.032831    0.002859
H     2.165124   -1.442432    0.173914   -0.072864   -0.251924    0.019693
H    -0.254615   -1.990741    0.982861    1.147588   -0.256723    0.015287
H    -1.857781    1.396568   -0.179504   -0.434226   -0.756079    0.052568
H     2.323253    1.088349   -0.037359    0.135110   -0.423833    0.039660
H    -0.211017   -2.134448   -0.652015    1.147642   -0.249628    0.090353
13
* Frequency(27) 1354.7860
C     1.372793    0.529851   -0.015036   -0.078674   -0.001746   -0.001969
C     1.302724   -0.794210    0.095800    0.158161    0.058552   -0.000904
N    -0.008640   -1.463020    0.118827   -0.278065   -0.014181   -0.006112
C    -1.330555   -0.610659    0.008144   -0.131957    0.216340   -0.022570
N    -1.080705    0.709657   -0.097399    0.065431   -0.062606    0.007163
C     0.172593    1.398876   -0.122183   -0.004029    0.016457   -0.001410
O    -2.344242   -1.219751    0.031049    0.105641    0.004755    0.002674
O     0.201841    2.589695   -0.223265    0.001761   -0.032831    0.002859
H     2.156844   -1.471062    0.176152   -0.072864   -0.251924    0.019693
H    -0.124198   -2.019917    0.984598    1.147588   -0.256723    0.015287
H    -1.907129    1.310644   -0.173530   -0.434226   -0.756079    0.052568
H     2.338608    1.040183   -0.032851    0.135110   -0.423833    0.039660
H    -0.080594   -2.162817   -0.641747    1.147642   -0.249628    0.090353
