13
* (null), Energy   -1000.0000000
C     1.628522    0.403282    0.009825    0.219594   -0.126635    0.016745
C     1.558257   -0.920826    0.121541   -0.452013    0.004633   -0.012265
N     0.246846   -1.589915    0.143551    0.323926    0.145400   -0.004165
C    -1.074947   -0.737408    0.033678    0.074043   -0.058344    0.007676
N    -0.825093    0.582903   -0.073451   -0.313216   -0.048508   -0.004714
C     0.428005    1.271956   -0.097784    0.043635    0.034024   -0.001385
O    -2.088804   -1.345922    0.058464    0.012217    0.113902   -0.009675
O     0.457572    2.462843   -0.197982   -0.001827   -0.002543    0.000058
H     2.412149   -1.597989    0.202997   -0.547572   -0.087159   -0.008020
H     0.131582   -2.147641    1.008616    0.736437    0.076195    0.009125
H    -1.651708    1.183769   -0.147738   -0.574286   -0.391942    0.018882
H     2.594425    0.913409   -0.007422    0.701495   -1.042141    0.108687
H     0.175864   -2.288698   -0.617572    0.737404    0.074679    0.018994
13
* Frequency(21)  964.7760
C     1.653478    0.388890    0.011728    0.219594   -0.126635    0.016745
C     1.506888   -0.920299    0.120148   -0.452013    0.004633   -0.012265
N     0.283658   -1.573391    0.143078    0.323926    0.145400   -0.004165
C    -1.066533   -0.744038    0.034550    0.074043   -0.058344    0.007676
N    -0.860688    0.577391   -0.073987   -0.313216   -0.048508   -0.004714
C     0.432964    1.275822   -0.097942    0.043635    0.034024   -0.001385
O    -2.087416   -1.332977    0.057365    0.012217    0.113902   -0.009675
O     0.457364    2.462554   -0.197976   -0.001827   -0.002543    0.000058
H     2.349920   -1.607894    0.202085   -0.547572   -0.087159   -0.008020
H     0.215275   -2.138982    1.009653    0.736437    0.076195    0.009125
H    -1.716973    1.139227   -0.145592   -0.574286   -0.391942    0.018882
H     2.674146    0.794975    0.004930    0.701495   -1.042141    0.108687
H     0.259666   -2.280212   -0.615414    0.737404    0.074679    0.018994
13
* Frequency(21)  964.7760
C     1.675729    0.376058    0.013425    0.219594   -0.126635    0.016745
C     1.461086   -0.919830    0.118905   -0.452013    0.004633   -0.012265
N     0.316481   -1.558657    0.142656    0.323926    0.145400   -0.004165
C    -1.059030   -0.749950    0.035328    0.074043   -0.058344    0.007676
N    -0.892426    0.572475   -0.074465   -0.313216   -0.048508   -0.004714
C     0.437385    1.279270   -0.098082    0.043635    0.034024   -0.001385
O    -2.086178   -1.321435    0.056384    0.012217    0.113902   -0.009675
O     0.457179    2.462296   -0.197970   -0.001827   -0.002543    0.000058
H     2.294435   -1.616726    0.201272   -0.547572   -0.087159   -0.008020
H     0.289897   -2.131261    1.010577    0.736437    0.076195    0.009125
H    -1.775165    1.099512   -0.143679   -0.574286   -0.391942    0.018882
H     2.745228    0.689375    0.015943    0.701495   -1.042141    0.108687
H     0.334387   -2.272644   -0.613489    0.737404    0.074679    0.018994
13
* Frequency(21)  964.7760
C     1.692865    0.366177    0.014732    0.219594   -0.126635    0.016745
C     1.425814   -0.919468    0.117948   -0.452013    0.004633   -0.012265
N     0.341759   -1.547311    0.142331    0.323926    0.145400   -0.004165
C    -1.053252   -0.754503    0.035927    0.074043   -0.058344    0.007676
N    -0.916868    0.568690   -0.074832   -0.313216   -0.048508   -0.004714
C     0.440790    1.281925   -0.098190    0.043635    0.034024   -0.001385
O    -2.085224   -1.312547    0.055630    0.012217    0.113902   -0.009675
O     0.457037    2.462098   -0.197965   -0.001827   -0.002543    0.000058
H     2.251706   -1.623527    0.200647   -0.547572   -0.087159   -0.008020
H     0.347365   -2.125316    1.011289    0.736437    0.076195    0.009125
H    -1.819979    1.068927   -0.142205   -0.574286   -0.391942    0.018882
H     2.799969    0.608053    0.024424    0.701495   -1.042141    0.108687
H     0.391929   -2.266817   -0.612007    0.737404    0.074679    0.018994
13
* Frequency(21)  964.7760
C     1.703029    0.360316    0.015507    0.219594   -0.126635    0.016745
C     1.404894   -0.919254    0.117380   -0.452013    0.004633   -0.012265
N     0.356750   -1.540582    0.142138    0.323926    0.145400   -0.004165
C    -1.049825   -0.757204    0.036282    0.074043   -0.058344    0.007676
N    -0.931364    0.566445   -0.075051   -0.313216   -0.048508   -0.004714
C     0.442810    1.283500   -0.098254    0.043635    0.034024   -0.001385
O    -2.084659   -1.307276    0.055182    0.012217    0.113902   -0.009675
O     0.456952    2.461980   -0.197962   -0.001827   -0.002543    0.000058
H     2.226363   -1.627561    0.200275   -0.547572   -0.087159   -0.008020
H     0.381448   -2.121789    1.011712    0.736437    0.076195    0.009125
H    -1.846558    1.050787   -0.141331   -0.574286   -0.391942    0.018882
H     2.832435    0.559821    0.029454    0.701495   -1.042141    0.108687
H     0.426058   -2.263361   -0.611128    0.737404    0.074679    0.018994
13
* Frequency(21)  964.7760
C     1.705118    0.359111    0.015666    0.219594   -0.126635    0.016745
C     1.400593   -0.919210    0.117263   -0.452013    0.004633   -0.012265
N     0.359832   -1.539198    0.142098    0.323926    0.145400   -0.004165
C    -1.049121   -0.757759    0.036355    0.074043   -0.058344    0.007676
N    -0.934344    0.565983   -0.075095   -0.313216   -0.048508   -0.004714
C     0.443225    1.283824   -0.098267    0.043635    0.034024   -0.001385
O    -2.084543   -1.306192    0.055090    0.012217    0.113902   -0.009675
O     0.456935    2.461956   -0.197962   -0.001827   -0.002543    0.000058
H     2.221153   -1.628390    0.200199   -0.547572   -0.087159   -0.008020
H     0.388455   -2.121064    1.011799    0.736437    0.076195    0.009125
H    -1.852022    1.047058   -0.141152   -0.574286   -0.391942    0.018882
H     2.839110    0.549906    0.030488    0.701495   -1.042141    0.108687
H     0.433074   -2.262650   -0.610947    0.737404    0.074679    0.018994
13
* Frequency(21)  964.7760
C     1.698907    0.362692    0.015193    0.219594   -0.126635    0.016745
C     1.413378   -0.919341    0.117610   -0.452013    0.004633   -0.012265
N     0.350671   -1.543311    0.142216    0.323926    0.145400   -0.004165
C    -1.051215   -0.756108    0.036138    0.074043   -0.058344    0.007676
N    -0.925485    0.567355   -0.074962   -0.313216   -0.048508   -0.004714
C     0.441991    1.282861   -0.098228    0.043635    0.034024   -0.001385
O    -2.084888   -1.309414    0.055363    0.012217    0.113902   -0.009675
O     0.456986    2.462028   -0.197964   -0.001827   -0.002543    0.000058
H     2.236641   -1.625925    0.200426   -0.547572   -0.087159   -0.008020
H     0.367626   -2.123219    1.011540    0.736437    0.076195    0.009125
H    -1.835779    1.058144   -0.141686   -0.574286   -0.391942    0.018882
H     2.819269    0.579381    0.027414    0.701495   -1.042141    0.108687
H     0.412217   -2.264762   -0.611484    0.737404    0.074679    0.018994
13
* Frequency(21)  964.7760
C     1.685069    0.370673    0.014137    0.219594   -0.126635    0.016745
C     1.441862   -0.919633    0.118383   -0.452013    0.004633   -0.012265
N     0.330258   -1.552474    0.142479    0.323926    0.145400   -0.004165
C    -1.055881   -0.752432    0.035654    0.074043   -0.058344    0.007676
N    -0.905747    0.570412   -0.074665   -0.313216   -0.048508   -0.004714
C     0.439241    1.280717   -0.098141    0.043635    0.034024   -0.001385
O    -2.085658   -1.316591    0.055973    0.012217    0.113902   -0.009675
O     0.457102    2.462188   -0.197967   -0.001827   -0.002543    0.000058
H     2.271147   -1.620433    0.200931   -0.547572   -0.087159   -0.008020
H     0.321217   -2.128021    1.010965    0.736437    0.076195    0.009125
H    -1.799589    1.082843   -0.142876   -0.574286   -0.391942    0.018882
H     2.775062    0.645054    0.020565    0.701495   -1.042141    0.108687
H     0.365748   -2.269468   -0.612681    0.737404    0.074679    0.018994
13
* Frequency(21)  964.7760
C     1.665103    0.382187    0.012615    0.219594   -0.126635    0.016745
C     1.482960   -0.920054    0.119498   -0.452013    0.004633   -0.012265
N     0.300806   -1.565694    0.142857    0.323926    0.145400   -0.004165
C    -1.062613   -0.747127    0.034957    0.074043   -0.058344    0.007676
N    -0.877269    0.574823   -0.074236   -0.313216   -0.048508   -0.004714
C     0.435274    1.277624   -0.098015    0.043635    0.034024   -0.001385
O    -2.086769   -1.326948    0.056853    0.012217    0.113902   -0.009675
O     0.457268    2.462419   -0.197973   -0.001827   -0.002543    0.000058
H     2.320933   -1.612508    0.201661   -0.547572   -0.087159   -0.008020
H     0.254259   -2.134949    1.010136    0.736437    0.076195    0.009125
H    -1.747374    1.118479   -0.144593   -0.574286   -0.391942    0.018882
H     2.711281    0.739808    0.010683    0.701495   -1.042141    0.108687
H     0.298702   -2.276258   -0.614408    0.737404    0.074679    0.018994
13
* Frequency(21)  964.7760
C     1.641173    0.395986    0.010790    0.219594   -0.126635    0.016745
C     1.532218   -0.920559    0.120835   -0.452013    0.004633   -0.012265
N     0.265506   -1.581538    0.143311    0.323926    0.145400   -0.004165
C    -1.070682   -0.740769    0.034120    0.074043   -0.058344    0.007676
N    -0.843137    0.580109   -0.073723   -0.313216   -0.048508   -0.004714
C     0.430519    1.273916   -0.097864    0.043635    0.034024   -0.001385
O    -2.088100   -1.339360    0.057907    0.012217    0.113902   -0.009675
O     0.457467    2.462696   -0.197979   -0.001827   -0.002543    0.000058
H     2.380604   -1.603010    0.202535   -0.547572   -0.087159   -0.008020
H     0.174007   -2.143252    1.009141    0.736437    0.076195    0.009125
H    -1.684792    1.161190   -0.146650   -0.574286   -0.391942    0.018882
H     2.634837    0.853373   -0.001161    0.701495   -1.042141    0.108687
H     0.218344   -2.284396   -0.616478    0.737404    0.074679    0.018994
13
* Frequency(21)  964.7760
C     1.615872    0.410577    0.008861    0.219594   -0.126635    0.016745
C     1.584297   -0.921093    0.122248   -0.452013    0.004633   -0.012265
N     0.228185   -1.598291    0.143791    0.323926    0.145400   -0.004165
C    -1.079213   -0.734047    0.033236    0.074043   -0.058344    0.007676
N    -0.807049    0.585698   -0.073179   -0.313216   -0.048508   -0.004714
C     0.425491    1.269996   -0.097704    0.043635    0.034024   -0.001385
O    -2.089508   -1.352483    0.059022    0.012217    0.113902   -0.009675
O     0.457677    2.462989   -0.197986   -0.001827   -0.002543    0.000058
H     2.443693   -1.592968    0.203459   -0.547572   -0.087159   -0.008020
H     0.089158   -2.152031    1.008090    0.736437    0.076195    0.009125
H    -1.618624    1.206349   -0.148826   -0.574286   -0.391942    0.018882
H     2.554013    0.973445   -0.013683    0.701495   -1.042141    0.108687
H     0.133384   -2.293001   -0.618666    0.737404    0.074679    0.018994
13
* Frequency(21)  964.7760
C     1.591942    0.424377    0.007036    0.219594   -0.126635    0.016745
C     1.633554   -0.921598    0.123585   -0.452013    0.004633   -0.012265
N     0.192886   -1.614135    0.144245    0.323926    0.145400   -0.004165
C    -1.087282   -0.727689    0.032399    0.074043   -0.058344    0.007676
N    -0.772917    0.590984   -0.072666   -0.313216   -0.048508   -0.004714
C     0.420736    1.266288   -0.097553    0.043635    0.034024   -0.001385
O    -2.090839   -1.364896    0.060076    0.012217    0.113902   -0.009675
O     0.457876    2.463266   -0.197992   -0.001827   -0.002543    0.000058
H     2.503364   -1.583470    0.204333   -0.547572   -0.087159   -0.008020
H     0.008905   -2.160334    1.007096    0.736437    0.076195    0.009125
H    -1.556043    1.249060   -0.150884   -0.574286   -0.391942    0.018882
H     2.477569    1.087011   -0.025527    0.701495   -1.042141    0.108687
H     0.053026   -2.301139   -0.620736    0.737404    0.074679    0.018994
13
* Frequency(21)  964.7760
C     1.571976    0.435890    0.005513    0.219594   -0.126635    0.016745
C     1.674652   -0.922019    0.124700   -0.452013    0.004633   -0.012265
N     0.163434   -1.627356    0.144623    0.323926    0.145400   -0.004165
C    -1.094014   -0.722384    0.031701    0.074043   -0.058344    0.007676
N    -0.744439    0.595394   -0.072237   -0.313216   -0.048508   -0.004714
C     0.416769    1.263195   -0.097427    0.043635    0.034024   -0.001385
O    -2.091950   -1.375252    0.060955    0.012217    0.113902   -0.009675
O     0.458043    2.463497   -0.197997   -0.001827   -0.002543    0.000058
H     2.553150   -1.575545    0.205062   -0.547572   -0.087159   -0.008020
H    -0.058053   -2.167262    1.006266    0.736437    0.076195    0.009125
H    -1.503827    1.284696   -0.152600   -0.574286   -0.391942    0.018882
H     2.413787    1.181764   -0.035409    0.701495   -1.042141    0.108687
H    -0.014020   -2.307928   -0.622463    0.737404    0.074679    0.018994
13
* Frequency(21)  964.7760
C     1.558138    0.443871    0.004458    0.219594   -0.126635    0.016745
C     1.703137   -0.922311    0.125473   -0.452013    0.004633   -0.012265
N     0.143021   -1.636518    0.144886    0.323926    0.145400   -0.004165
C    -1.098680   -0.718707    0.031217    0.074043   -0.058344    0.007676
N    -0.724701    0.598451   -0.071940   -0.313216   -0.048508   -0.004714
C     0.414019    1.261050   -0.097340    0.043635    0.034024   -0.001385
O    -2.092720   -1.382430    0.061565    0.012217    0.113902   -0.009675
O     0.458158    2.463658   -0.198001   -0.001827   -0.002543    0.000058
H     2.587657   -1.570053    0.205567   -0.547572   -0.087159   -0.008020
H    -0.104461   -2.172064    1.005691    0.736437    0.076195    0.009125
H    -1.467637    1.309395   -0.153790   -0.574286   -0.391942    0.018882
H     2.369581    1.247437   -0.042258    0.701495   -1.042141    0.108687
H    -0.060489   -2.312635   -0.623660    0.737404    0.074679    0.018994
13
* Frequency(21)  964.7760
C     1.551927    0.447452    0.003984    0.219594   -0.126635    0.016745
C     1.715921   -0.922442    0.125820   -0.452013    0.004633   -0.012265
N     0.133859   -1.640631    0.145004    0.323926    0.145400   -0.004165
C    -1.100774   -0.717057    0.031000    0.074043   -0.058344    0.007676
N    -0.715842    0.599823   -0.071807   -0.313216   -0.048508   -0.004714
C     0.412785    1.260088   -0.097301    0.043635    0.034024   -0.001385
O    -2.093066   -1.385651    0.061839    0.012217    0.113902   -0.009675
O     0.458209    2.463730   -0.198003   -0.001827   -0.002543    0.000058
H     2.603144   -1.567587    0.205794   -0.547572   -0.087159   -0.008020
H    -0.125290   -2.174219    1.005433    0.736437    0.076195    0.009125
H    -1.451394    1.320481   -0.154324   -0.574286   -0.391942    0.018882
H     2.349740    1.276913   -0.045333    0.701495   -1.042141    0.108687
H    -0.081346   -2.314747   -0.624197    0.737404    0.074679    0.018994
13
* Frequency(21)  964.7760
C     1.554016    0.446248    0.004144    0.219594   -0.126635    0.016745
C     1.711621   -0.922398    0.125703   -0.452013    0.004633   -0.012265
N     0.136941   -1.639247    0.144964    0.323926    0.145400   -0.004165
C    -1.100069   -0.717612    0.031073    0.074043   -0.058344    0.007676
N    -0.718822    0.599362   -0.071851   -0.313216   -0.048508   -0.004714
C     0.413200    1.260412   -0.097314    0.043635    0.034024   -0.001385
O    -2.092950   -1.384568    0.061747    0.012217    0.113902   -0.009675
O     0.458192    2.463705   -0.198002   -0.001827   -0.002543    0.000058
H     2.597934   -1.568417    0.205718   -0.547572   -0.087159   -0.008020
H    -0.118284   -2.173494    1.005520    0.736437    0.076195    0.009125
H    -1.456858    1.316752   -0.154145   -0.574286   -0.391942    0.018882
H     2.356414    1.266997   -0.044298    0.701495   -1.042141    0.108687
H    -0.074330   -2.314036   -0.624017    0.737404    0.074679    0.018994
13
* Frequency(21)  964.7760
C     1.564179    0.440387    0.004919    0.219594   -0.126635    0.016745
C     1.690701   -0.922183    0.125135   -0.452013    0.004633   -0.012265
N     0.151933   -1.632518    0.144771    0.323926    0.145400   -0.004165
C    -1.096643   -0.720313    0.031429    0.074043   -0.058344    0.007676
N    -0.733318    0.597117   -0.072070   -0.313216   -0.048508   -0.004714
C     0.415220    1.261987   -0.097378    0.043635    0.034024   -0.001385
O    -2.092384   -1.379296    0.061299    0.012217    0.113902   -0.009675
O     0.458108    2.463588   -0.197999   -0.001827   -0.002543    0.000058
H     2.572592   -1.572451    0.205347   -0.547572   -0.087159   -0.008020
H    -0.084200   -2.169967    1.005942    0.736437    0.076195    0.009125
H    -1.483437    1.298612   -0.153271   -0.574286   -0.391942    0.018882
H     2.388881    1.218765   -0.039268    0.701495   -1.042141    0.108687
H    -0.040201   -2.310580   -0.623138    0.737404    0.074679    0.018994
13
* Frequency(21)  964.7760
C     1.581315    0.430505    0.006226    0.219594   -0.126635    0.016745
C     1.655428   -0.921822    0.124178   -0.452013    0.004633   -0.012265
N     0.177210   -1.621172    0.144446    0.323926    0.145400   -0.004165
C    -1.090865   -0.724865    0.032028    0.074043   -0.058344    0.007676
N    -0.757759    0.593331   -0.072438   -0.313216   -0.048508   -0.004714
C     0.418625    1.264642   -0.097486    0.043635    0.034024   -0.001385
O    -2.091431   -1.370408    0.060544    0.012217    0.113902   -0.009675
O     0.457965    2.463389   -0.197995   -0.001827   -0.002543    0.000058
H     2.529862   -1.579252    0.204721   -0.547572   -0.087159   -0.008020
H    -0.026733   -2.164021    1.006654    0.736437    0.076195    0.009125
H    -1.528251    1.268027   -0.151797   -0.574286   -0.391942    0.018882
H     2.443621    1.137443   -0.030787    0.701495   -1.042141    0.108687
H     0.017341   -2.304752   -0.621655    0.737404    0.074679    0.018994
13
* Frequency(21)  964.7760
C     1.603567    0.417673    0.007922    0.219594   -0.126635    0.016745
C     1.609626   -0.921352    0.122935   -0.452013    0.004633   -0.012265
N     0.210033   -1.606438    0.144024    0.323926    0.145400   -0.004165
C    -1.083362   -0.730777    0.032805    0.074043   -0.058344    0.007676
N    -0.789497    0.588416   -0.072915   -0.313216   -0.048508   -0.004714
C     0.423046    1.268089   -0.097627    0.043635    0.034024   -0.001385
O    -2.090193   -1.358866    0.059564    0.012217    0.113902   -0.009675
O     0.457780    2.463132   -0.197989   -0.001827   -0.002543    0.000058
H     2.474377   -1.588084    0.203908   -0.547572   -0.087159   -0.008020
H     0.047890   -2.156301    1.007579    0.736437    0.076195    0.009125
H    -1.586443    1.228312   -0.149884   -0.574286   -0.391942    0.018882
H     2.514704    1.031843   -0.019774    0.701495   -1.042141    0.108687
H     0.092062   -2.297185   -0.619731    0.737404    0.074679    0.018994
13
* Frequency(21)  964.7760
C     1.628522    0.403282    0.009825    0.219594   -0.126635    0.016745
C     1.558257   -0.920826    0.121541   -0.452013    0.004633   -0.012265
N     0.246846   -1.589915    0.143551    0.323926    0.145400   -0.004165
C    -1.074947   -0.737408    0.033678    0.074043   -0.058344    0.007676
N    -0.825093    0.582903   -0.073451   -0.313216   -0.048508   -0.004714
C     0.428005    1.271956   -0.097784    0.043635    0.034024   -0.001385
O    -2.088804   -1.345922    0.058464    0.012217    0.113902   -0.009675
O     0.457572    2.462843   -0.197982   -0.001827   -0.002543    0.000058
H     2.412149   -1.597989    0.202997   -0.547572   -0.087159   -0.008020
H     0.131582   -2.147641    1.008616    0.736437    0.076195    0.009125
H    -1.651708    1.183769   -0.147738   -0.574286   -0.391942    0.018882
H     2.594425    0.913409   -0.007422    0.701495   -1.042141    0.108687
H     0.175864   -2.288698   -0.617572    0.737404    0.074679    0.018994
