13
* (null), Energy   -1000.0000000
C     1.628522    0.403282    0.009825    0.005909   -0.017496   -0.205707
C     1.558257   -0.920826    0.121541    0.001535   -0.004168   -0.050110
N     0.246846   -1.589915    0.143551   -0.004868    0.015922    0.184447
C    -1.074947   -0.737408    0.033678    0.003684   -0.010752   -0.125211
N    -0.825093    0.582903   -0.073451    0.029691   -0.091783   -1.063584
C     0.428005    1.271956   -0.097784    0.002998   -0.009360   -0.107214
O    -2.088804   -1.345922    0.058464   -0.013168    0.041408    0.468401
O     0.457572    2.462843   -0.197982   -0.020341    0.059700    0.706700
H     2.412149   -1.597989    0.202997    0.000505   -0.001015   -0.013178
H     0.131582   -2.147641    1.008616   -0.020078    0.338509    0.390752
H    -1.651708    1.183769   -0.147738    0.033099   -0.102918   -1.191165
H     2.594425    0.913409   -0.007422    0.007061   -0.021077   -0.247298
H     0.175864   -2.288698   -0.617572   -0.001998   -0.266351    0.443729
13
* Frequency(7)  132.0752
C     1.629194    0.401293   -0.013552    0.005909   -0.017496   -0.205707
C     1.558432   -0.921299    0.115847    0.001535   -0.004168   -0.050110
N     0.246292   -1.588105    0.164512   -0.004868    0.015922    0.184447
C    -1.074529   -0.738630    0.019448    0.003684   -0.010752   -0.125211
N    -0.821719    0.572473   -0.194322    0.029691   -0.091783   -1.063584
C     0.428346    1.270892   -0.109968    0.002998   -0.009360   -0.107214
O    -2.090301   -1.341216    0.111696   -0.013168    0.041408    0.468401
O     0.455260    2.469627   -0.117669   -0.020341    0.059700    0.706700
H     2.412206   -1.598104    0.201499    0.000505   -0.001015   -0.013178
H     0.129301   -2.109172    1.053023   -0.020078    0.338509    0.390752
H    -1.647947    1.172073   -0.283108    0.033099   -0.102918   -1.191165
H     2.595227    0.911014   -0.035526    0.007061   -0.021077   -0.247298
H     0.175637   -2.318968   -0.567145   -0.001998   -0.266351    0.443729
13
* Frequency(7)  132.0752
C     1.629793    0.399520   -0.034396    0.005909   -0.017496   -0.205707
C     1.558587   -0.921722    0.110769    0.001535   -0.004168   -0.050110
N     0.245799   -1.586492    0.183202   -0.004868    0.015922    0.184447
C    -1.074155   -0.739719    0.006761    0.003684   -0.010752   -0.125211
N    -0.818710    0.563172   -0.302094    0.029691   -0.091783   -1.063584
C     0.428649    1.269944   -0.120832    0.002998   -0.009360   -0.107214
O    -2.091635   -1.337020    0.159159   -0.013168    0.041408    0.468401
O     0.453199    2.475677   -0.046060   -0.020341    0.059700    0.706700
H     2.412257   -1.598207    0.200164    0.000505   -0.001015   -0.013178
H     0.127266   -2.074871    1.092617   -0.020078    0.338509    0.390752
H    -1.644593    1.161645   -0.403808    0.033099   -0.102918   -1.191165
H     2.595943    0.908878   -0.060585    0.007061   -0.021077   -0.247298
H     0.175435   -2.345957   -0.522182   -0.001998   -0.266351    0.443729
13
* Frequency(7)  132.0752
C     1.630254    0.398155   -0.050448    0.005909   -0.017496   -0.205707
C     1.558707   -0.922047    0.106859    0.001535   -0.004168   -0.050110
N     0.245419   -1.585249    0.197595   -0.004868    0.015922    0.184447
C    -1.073868   -0.740558   -0.003010    0.003684   -0.010752   -0.125211
N    -0.816393    0.556010   -0.385090    0.029691   -0.091783   -1.063584
C     0.428883    1.269213   -0.129199    0.002998   -0.009360   -0.107214
O    -2.092662   -1.333789    0.195710   -0.013168    0.041408    0.468401
O     0.451612    2.480335    0.009087   -0.020341    0.059700    0.706700
H     2.412297   -1.598286    0.199136    0.000505   -0.001015   -0.013178
H     0.125699   -2.048455    1.123109   -0.020078    0.338509    0.390752
H    -1.642010    1.153614   -0.496759    0.033099   -0.102918   -1.191165
H     2.596494    0.907233   -0.079882    0.007061   -0.021077   -0.247298
H     0.175279   -2.366741   -0.487556   -0.001998   -0.266351    0.443729
13
* Frequency(7)  132.0752
C     1.630527    0.397345   -0.059969    0.005909   -0.017496   -0.205707
C     1.558778   -0.922240    0.104540    0.001535   -0.004168   -0.050110
N     0.245194   -1.584512    0.206132   -0.004868    0.015922    0.184447
C    -1.073697   -0.741056   -0.008805    0.003684   -0.010752   -0.125211
N    -0.815019    0.551762   -0.434315    0.029691   -0.091783   -1.063584
C     0.429022    1.268780   -0.134161    0.002998   -0.009360   -0.107214
O    -2.093272   -1.331872    0.217388   -0.013168    0.041408    0.468401
O     0.450670    2.483098    0.041794   -0.020341    0.059700    0.706700
H     2.412320   -1.598333    0.198526    0.000505   -0.001015   -0.013178
H     0.124770   -2.032789    1.141194   -0.020078    0.338509    0.390752
H    -1.640478    1.148850   -0.551889    0.033099   -0.102918   -1.191165
H     2.596821    0.906258   -0.091328    0.007061   -0.021077   -0.247298
H     0.175186   -2.379069   -0.467019   -0.001998   -0.266351    0.443729
13
* Frequency(7)  132.0752
C     1.630583    0.397179   -0.061926    0.005909   -0.017496   -0.205707
C     1.558793   -0.922280    0.104063    0.001535   -0.004168   -0.050110
N     0.245148   -1.584361    0.207887   -0.004868    0.015922    0.184447
C    -1.073662   -0.741158   -0.009996    0.003684   -0.010752   -0.125211
N    -0.814736    0.550889   -0.444434    0.029691   -0.091783   -1.063584
C     0.429051    1.268691   -0.135181    0.002998   -0.009360   -0.107214
O    -2.093397   -1.331478    0.221845   -0.013168    0.041408    0.468401
O     0.450477    2.483666    0.048518   -0.020341    0.059700    0.706700
H     2.412325   -1.598343    0.198400    0.000505   -0.001015   -0.013178
H     0.124579   -2.029568    1.144912   -0.020078    0.338509    0.390752
H    -1.640163    1.147871   -0.563222    0.033099   -0.102918   -1.191165
H     2.596888    0.906057   -0.093681    0.007061   -0.021077   -0.247298
H     0.175167   -2.381603   -0.462797   -0.001998   -0.266351    0.443729
13
* Frequency(7)  132.0752
C     1.630416    0.397674   -0.056108    0.005909   -0.017496   -0.205707
C     1.558749   -0.922162    0.105480    0.001535   -0.004168   -0.050110
N     0.245285   -1.584811    0.202670   -0.004868    0.015922    0.184447
C    -1.073767   -0.740854   -0.006455    0.003684   -0.010752   -0.125211
N    -0.815576    0.553485   -0.414352    0.029691   -0.091783   -1.063584
C     0.428966    1.268956   -0.132148    0.002998   -0.009360   -0.107214
O    -2.093025   -1.332649    0.208597   -0.013168    0.041408    0.468401
O     0.451052    2.481978    0.028530   -0.020341    0.059700    0.706700
H     2.412311   -1.598314    0.198773    0.000505   -0.001015   -0.013178
H     0.125147   -2.039142    1.133860   -0.020078    0.338509    0.390752
H    -1.641099    1.150782   -0.529531    0.033099   -0.102918   -1.191165
H     2.596688    0.906653   -0.086686    0.007061   -0.021077   -0.247298
H     0.175224   -2.374069   -0.475348   -0.001998   -0.266351    0.443729
13
* Frequency(7)  132.0752
C     1.630044    0.398776   -0.043145    0.005909   -0.017496   -0.205707
C     1.558652   -0.921899    0.108638    0.001535   -0.004168   -0.050110
N     0.245592   -1.585814    0.191047   -0.004868    0.015922    0.184447
C    -1.073999   -0.740177    0.001436    0.003684   -0.010752   -0.125211
N    -0.817447    0.559269   -0.347328    0.029691   -0.091783   -1.063584
C     0.428777    1.269546   -0.125392    0.002998   -0.009360   -0.107214
O    -2.092195   -1.335259    0.179079   -0.013168    0.041408    0.468401
O     0.452334    2.478216   -0.016004   -0.020341    0.059700    0.706700
H     2.412279   -1.598250    0.199603    0.000505   -0.001015   -0.013178
H     0.126412   -2.060474    1.109236   -0.020078    0.338509    0.390752
H    -1.643185    1.157268   -0.454467    0.033099   -0.102918   -1.191165
H     2.596243    0.907982   -0.071102    0.007061   -0.021077   -0.247298
H     0.175350   -2.357285   -0.503310   -0.001998   -0.266351    0.443729
13
* Frequency(7)  132.0752
C     1.629507    0.400367   -0.024442    0.005909   -0.017496   -0.205707
C     1.558513   -0.921520    0.113194    0.001535   -0.004168   -0.050110
N     0.246035   -1.587262    0.174276   -0.004868    0.015922    0.184447
C    -1.074334   -0.739199    0.012820    0.003684   -0.010752   -0.125211
N    -0.820147    0.567614   -0.250625    0.029691   -0.091783   -1.063584
C     0.428504    1.270397   -0.115644    0.002998   -0.009360   -0.107214
O    -2.090998   -1.339024    0.136491   -0.013168    0.041408    0.468401
O     0.454184    2.472788   -0.080259   -0.020341    0.059700    0.706700
H     2.412233   -1.598158    0.200802    0.000505   -0.001015   -0.013178
H     0.128238   -2.091252    1.073708   -0.020078    0.338509    0.390752
H    -1.646194    1.166625   -0.346164    0.033099   -0.102918   -1.191165
H     2.595601    0.909898   -0.048617    0.007061   -0.021077   -0.247298
H     0.175531   -2.333068   -0.543655   -0.001998   -0.266351    0.443729
13
* Frequency(7)  132.0752
C     1.628863    0.402274   -0.002025    0.005909   -0.017496   -0.205707
C     1.558346   -0.921066    0.118655    0.001535   -0.004168   -0.050110
N     0.246565   -1.588997    0.154177   -0.004868    0.015922    0.184447
C    -1.074735   -0.738027    0.026465    0.003684   -0.010752   -0.125211
N    -0.823382    0.577616   -0.134722    0.029691   -0.091783   -1.063584
C     0.428178    1.271417   -0.103960    0.002998   -0.009360   -0.107214
O    -2.089563   -1.343536    0.085448   -0.013168    0.041408    0.468401
O     0.456400    2.466282   -0.157271   -0.020341    0.059700    0.706700
H     2.412178   -1.598047    0.202238    0.000505   -0.001015   -0.013178
H     0.130426   -2.128140    1.031126   -0.020078    0.338509    0.390752
H    -1.649801    1.177841   -0.216359    0.033099   -0.102918   -1.191165
H     2.594832    0.912195   -0.021668    0.007061   -0.021077   -0.247298
H     0.175749   -2.304042   -0.592010   -0.001998   -0.266351    0.443729
13
* Frequency(7)  132.0752
C     1.628182    0.404289    0.021676    0.005909   -0.017496   -0.205707
C     1.558169   -0.920586    0.124428    0.001535   -0.004168   -0.050110
N     0.247126   -1.590832    0.132925   -0.004868    0.015922    0.184447
C    -1.075160   -0.736789    0.040891    0.003684   -0.010752   -0.125211
N    -0.826803    0.588191   -0.012180    0.029691   -0.091783   -1.063584
C     0.427832    1.272495   -0.091608    0.002998   -0.009360   -0.107214
O    -2.088046   -1.348307    0.031481   -0.013168    0.041408    0.468401
O     0.458744    2.459403   -0.238694   -0.020341    0.059700    0.706700
H     2.412119   -1.597930    0.203756    0.000505   -0.001015   -0.013178
H     0.132739   -2.167142    0.986105   -0.020078    0.338509    0.390752
H    -1.653615    1.189698   -0.079117    0.033099   -0.102918   -1.191165
H     2.594018    0.914623    0.006824    0.007061   -0.021077   -0.247298
H     0.175979   -2.273354   -0.643135   -0.001998   -0.266351    0.443729
13
* Frequency(7)  132.0752
C     1.627538    0.406196    0.044092    0.005909   -0.017496   -0.205707
C     1.558001   -0.920131    0.129889    0.001535   -0.004168   -0.050110
N     0.247656   -1.592567    0.112826   -0.004868    0.015922    0.184447
C    -1.075561   -0.735617    0.054536    0.003684   -0.010752   -0.125211
N    -0.830039    0.598193    0.103723    0.029691   -0.091783   -1.063584
C     0.427506    1.273515   -0.079924    0.002998   -0.009360   -0.107214
O    -2.086611   -1.352819   -0.019563   -0.013168    0.041408    0.468401
O     0.460961    2.452898   -0.315706   -0.020341    0.059700    0.706700
H     2.412064   -1.597820    0.205192    0.000505   -0.001015   -0.013178
H     0.134927   -2.204031    0.943523   -0.020078    0.338509    0.390752
H    -1.657222    1.200914    0.050688    0.033099   -0.102918   -1.191165
H     2.593249    0.916920    0.033773    0.007061   -0.021077   -0.247298
H     0.176197   -2.244329   -0.691489   -0.001998   -0.266351    0.443729
13
* Frequency(7)  132.0752
C     1.627001    0.407787    0.062796    0.005909   -0.017496   -0.205707
C     1.557862   -0.919752    0.134445    0.001535   -0.004168   -0.050110
N     0.248099   -1.594015    0.096055   -0.004868    0.015922    0.184447
C    -1.075896   -0.734639    0.065920    0.003684   -0.010752   -0.125211
N    -0.832738    0.606538    0.200425    0.029691   -0.091783   -1.063584
C     0.427233    1.274366   -0.070176    0.002998   -0.009360   -0.107214
O    -2.085414   -1.356584   -0.062151   -0.013168    0.041408    0.468401
O     0.462810    2.447470   -0.379960   -0.020341    0.059700    0.706700
H     2.412018   -1.597728    0.206390    0.000505   -0.001015   -0.013178
H     0.136752   -2.234809    0.907996   -0.020078    0.338509    0.390752
H    -1.660231    1.210271    0.158991    0.033099   -0.102918   -1.191165
H     2.592607    0.918837    0.056258    0.007061   -0.021077   -0.247298
H     0.176378   -2.220112   -0.731834   -0.001998   -0.266351    0.443729
13
* Frequency(7)  132.0752
C     1.626628    0.408889    0.075759    0.005909   -0.017496   -0.205707
C     1.557765   -0.919490    0.137603    0.001535   -0.004168   -0.050110
N     0.248406   -1.595018    0.084432   -0.004868    0.015922    0.184447
C    -1.076128   -0.733962    0.073811    0.003684   -0.010752   -0.125211
N    -0.834609    0.612322    0.267450    0.029691   -0.091783   -1.063584
C     0.427044    1.274956   -0.063420    0.002998   -0.009360   -0.107214
O    -2.084584   -1.359194   -0.091668   -0.013168    0.041408    0.468401
O     0.464092    2.443708   -0.424494   -0.020341    0.059700    0.706700
H     2.411987   -1.597664    0.207220    0.000505   -0.001015   -0.013178
H     0.138018   -2.256141    0.883371   -0.020078    0.338509    0.390752
H    -1.662317    1.216757    0.234055    0.033099   -0.102918   -1.191165
H     2.592162    0.920165    0.071842    0.007061   -0.021077   -0.247298
H     0.176504   -2.203327   -0.759796   -0.001998   -0.266351    0.443729
13
* Frequency(7)  132.0752
C     1.626461    0.409384    0.081577    0.005909   -0.017496   -0.205707
C     1.557722   -0.919372    0.139020    0.001535   -0.004168   -0.050110
N     0.248543   -1.595468    0.079215   -0.004868    0.015922    0.184447
C    -1.076233   -0.733658    0.077352    0.003684   -0.010752   -0.125211
N    -0.835449    0.614918    0.297532    0.029691   -0.091783   -1.063584
C     0.426959    1.275221   -0.060387    0.002998   -0.009360   -0.107214
O    -2.084211   -1.360365   -0.104916   -0.013168    0.041408    0.468401
O     0.464667    2.442019   -0.444483   -0.020341    0.059700    0.706700
H     2.411972   -1.597635    0.207593    0.000505   -0.001015   -0.013178
H     0.138585   -2.265715    0.872319   -0.020078    0.338509    0.390752
H    -1.663253    1.219668    0.267746    0.033099   -0.102918   -1.191165
H     2.591962    0.920761    0.078836    0.007061   -0.021077   -0.247298
H     0.176561   -2.195794   -0.772347   -0.001998   -0.266351    0.443729
13
* Frequency(7)  132.0752
C     1.626517    0.409218    0.079620    0.005909   -0.017496   -0.205707
C     1.557736   -0.919411    0.138543    0.001535   -0.004168   -0.050110
N     0.248497   -1.595317    0.080970   -0.004868    0.015922    0.184447
C    -1.076198   -0.733760    0.076161    0.003684   -0.010752   -0.125211
N    -0.835167    0.614044    0.287413    0.029691   -0.091783   -1.063584
C     0.426988    1.275132   -0.061407    0.002998   -0.009360   -0.107214
O    -2.084337   -1.359971   -0.100460   -0.013168    0.041408    0.468401
O     0.464474    2.442587   -0.437759   -0.020341    0.059700    0.706700
H     2.411977   -1.597645    0.207468    0.000505   -0.001015   -0.013178
H     0.138394   -2.262494    0.876037   -0.020078    0.338509    0.390752
H    -1.662938    1.218689    0.256412    0.033099   -0.102918   -1.191165
H     2.592029    0.920561    0.076484    0.007061   -0.021077   -0.247298
H     0.176542   -2.198328   -0.768125   -0.001998   -0.266351    0.443729
13
* Frequency(7)  132.0752
C     1.626791    0.408408    0.070099    0.005909   -0.017496   -0.205707
C     1.557807   -0.919604    0.136224    0.001535   -0.004168   -0.050110
N     0.248272   -1.594580    0.089507   -0.004868    0.015922    0.184447
C    -1.076027   -0.734258    0.070366    0.003684   -0.010752   -0.125211
N    -0.833793    0.609796    0.238188    0.029691   -0.091783   -1.063584
C     0.427127    1.274699   -0.066369    0.002998   -0.009360   -0.107214
O    -2.084946   -1.358055   -0.078781   -0.013168    0.041408    0.468401
O     0.463532    2.445350   -0.405051   -0.020341    0.059700    0.706700
H     2.412001   -1.597692    0.206858    0.000505   -0.001015   -0.013178
H     0.137465   -2.246827    0.894122   -0.020078    0.338509    0.390752
H    -1.661406    1.213925    0.201283    0.033099   -0.102918   -1.191165
H     2.592356    0.919585    0.065038    0.007061   -0.021077   -0.247298
H     0.176449   -2.210655   -0.747588   -0.001998   -0.266351    0.443729
13
* Frequency(7)  132.0752
C     1.627252    0.407043    0.054047    0.005909   -0.017496   -0.205707
C     1.557927   -0.919930    0.132314    0.001535   -0.004168   -0.050110
N     0.247892   -1.593337    0.103900   -0.004868    0.015922    0.184447
C    -1.075739   -0.735097    0.060595    0.003684   -0.010752   -0.125211
N    -0.831476    0.602634    0.155192    0.029691   -0.091783   -1.063584
C     0.427360    1.273968   -0.074736    0.002998   -0.009360   -0.107214
O    -2.085974   -1.354823   -0.042230   -0.013168    0.041408    0.468401
O     0.461945    2.450009   -0.349905   -0.020341    0.059700    0.706700
H     2.412040   -1.597771    0.205830    0.000505   -0.001015   -0.013178
H     0.135898   -2.220412    0.924614   -0.020078    0.338509    0.390752
H    -1.658823    1.205894    0.108332    0.033099   -0.102918   -1.191165
H     2.592907    0.917940    0.045741    0.007061   -0.021077   -0.247298
H     0.176293   -2.231440   -0.712963   -0.001998   -0.266351    0.443729
13
* Frequency(7)  132.0752
C     1.627851    0.405270    0.033203    0.005909   -0.017496   -0.205707
C     1.558083   -0.920352    0.127236    0.001535   -0.004168   -0.050110
N     0.247399   -1.591724    0.122590   -0.004868    0.015922    0.184447
C    -1.075366   -0.736186    0.047907    0.003684   -0.010752   -0.125211
N    -0.828467    0.593334    0.047420    0.029691   -0.091783   -1.063584
C     0.427664    1.273020   -0.085600    0.002998   -0.009360   -0.107214
O    -2.087308   -1.350627    0.005233   -0.013168    0.041408    0.468401
O     0.459884    2.456058   -0.278295   -0.020341    0.059700    0.706700
H     2.412091   -1.597874    0.204494    0.000505   -0.001015   -0.013178
H     0.133864   -2.186111    0.964209   -0.020078    0.338509    0.390752
H    -1.655470    1.195466   -0.012368    0.033099   -0.102918   -1.191165
H     2.593622    0.915805    0.020682    0.007061   -0.021077   -0.247298
H     0.176091   -2.258429   -0.668000   -0.001998   -0.266351    0.443729
13
* Frequency(7)  132.0752
C     1.628522    0.403282    0.009825    0.005909   -0.017496   -0.205707
C     1.558257   -0.920826    0.121541    0.001535   -0.004168   -0.050110
N     0.246846   -1.589915    0.143551   -0.004868    0.015922    0.184447
C    -1.074947   -0.737408    0.033678    0.003684   -0.010752   -0.125211
N    -0.825093    0.582903   -0.073451    0.029691   -0.091783   -1.063584
C     0.428005    1.271956   -0.097784    0.002998   -0.009360   -0.107214
O    -2.088804   -1.345922    0.058464   -0.013168    0.041408    0.468401
O     0.457572    2.462843   -0.197982   -0.020341    0.059700    0.706700
H     2.412149   -1.597989    0.202997    0.000505   -0.001015   -0.013178
H     0.131582   -2.147641    1.008616   -0.020078    0.338509    0.390752
H    -1.651708    1.183769   -0.147738    0.033099   -0.102918   -1.191165
H     2.594425    0.913409   -0.007422    0.007061   -0.021077   -0.247298
H     0.175864   -2.288698   -0.617572   -0.001998   -0.266351    0.443729
