13
* (null), Energy   -1000.0000000
C     1.628522    0.403282    0.009825   -0.098124   -0.013470   -0.001496
C     1.558257   -0.920826    0.121541    0.089049    0.082663   -0.004446
N     0.246846   -1.589915    0.143551   -0.044163    0.004414   -0.001653
C    -1.074947   -0.737408    0.033678   -0.008972    0.070563   -0.006427
N    -0.825093    0.582903   -0.073451   -0.102862   -0.126001    0.008008
C     0.428005    1.271956   -0.097784    0.164030    0.014323    0.003317
O    -2.088804   -1.345922    0.058464    0.034937    0.032541   -0.001828
O     0.457572    2.462843   -0.197982   -0.009986   -0.035204    0.002707
H     2.412149   -1.597989    0.202997    0.873838    1.070846   -0.069358
H     0.131582   -2.147641    1.008616   -0.548232    0.093747   -0.015010
H    -1.651708    1.183769   -0.147738   -0.276052   -0.366995    0.024393
H     2.594425    0.913409   -0.007422    0.407931   -0.993657    0.096289
H     0.175864   -2.288698   -0.617572   -0.549965    0.091929   -0.030695
13
* Frequency(23) 1170.2654
C     1.617371    0.401751    0.009655   -0.098124   -0.013470   -0.001496
C     1.568377   -0.911432    0.121036    0.089049    0.082663   -0.004446
N     0.241827   -1.589413    0.143363   -0.044163    0.004414   -0.001653
C    -1.075967   -0.729389    0.032947   -0.008972    0.070563   -0.006427
N    -0.836783    0.568584   -0.072541   -0.102862   -0.126001    0.008008
C     0.446646    1.273584   -0.097407    0.164030    0.014323    0.003317
O    -2.084834   -1.342224    0.058256    0.034937    0.032541   -0.001828
O     0.456437    2.458842   -0.197675   -0.009986   -0.035204    0.002707
H     2.511456   -1.476293    0.195114    0.873838    1.070846   -0.069358
H     0.069279   -2.136988    1.006910   -0.548232    0.093747   -0.015010
H    -1.683080    1.142062   -0.144966   -0.276052   -0.366995    0.024393
H     2.640784    0.800485    0.003521    0.407931   -0.993657    0.096289
H     0.113363   -2.278251   -0.621061   -0.549965    0.091929   -0.030695
13
* Frequency(23) 1170.2654
C     1.607428    0.400386    0.009504   -0.098124   -0.013470   -0.001496
C     1.577401   -0.903055    0.120586    0.089049    0.082663   -0.004446
N     0.237352   -1.588966    0.143196   -0.044163    0.004414   -0.001653
C    -1.076876   -0.722239    0.032296   -0.008972    0.070563   -0.006427
N    -0.847206    0.555816   -0.071729   -0.102862   -0.126001    0.008008
C     0.463267    1.275035   -0.097071    0.164030    0.014323    0.003317
O    -2.081294   -1.338926    0.058071    0.034937    0.032541   -0.001828
O     0.455425    2.455275   -0.197400   -0.009986   -0.035204    0.002707
H     2.600001   -1.367784    0.188086    0.873838    1.070846   -0.069358
H     0.013726   -2.127488    1.005389   -0.548232    0.093747   -0.015010
H    -1.711052    1.104875   -0.142494   -0.276052   -0.366995    0.024393
H     2.682120    0.699798    0.013278    0.407931   -0.993657    0.096289
H     0.057636   -2.268936   -0.624171   -0.549965    0.091929   -0.030695
13
* Frequency(23) 1170.2654
C     1.599771    0.399335    0.009387   -0.098124   -0.013470   -0.001496
C     1.584349   -0.896605    0.120239    0.089049    0.082663   -0.004446
N     0.233905   -1.588621    0.143067   -0.044163    0.004414   -0.001653
C    -1.077576   -0.716732    0.031795   -0.008972    0.070563   -0.006427
N    -0.855232    0.545984   -0.071105   -0.102862   -0.126001    0.008008
C     0.476067    1.276153   -0.096812    0.164030    0.014323    0.003317
O    -2.078567   -1.336387    0.057928    0.034937    0.032541   -0.001828
O     0.454646    2.452528   -0.197189   -0.009986   -0.035204    0.002707
H     2.668190   -1.284222    0.182674    0.873838    1.070846   -0.069358
H    -0.029054   -2.120173    1.004218   -0.548232    0.093747   -0.015010
H    -1.732593    1.076237   -0.140591   -0.276052   -0.366995    0.024393
H     2.713952    0.622259    0.020792    0.407931   -0.993657    0.096289
H     0.014720   -2.261762   -0.626566   -0.549965    0.091929   -0.030695
13
* Frequency(23) 1170.2654
C     1.595230    0.398711    0.009318   -0.098124   -0.013470   -0.001496
C     1.588471   -0.892779    0.120033    0.089049    0.082663   -0.004446
N     0.231862   -1.588417    0.142990   -0.044163    0.004414   -0.001653
C    -1.077992   -0.713467    0.031497   -0.008972    0.070563   -0.006427
N    -0.859993    0.540152   -0.070734   -0.102862   -0.126001    0.008008
C     0.483659    1.276816   -0.096659    0.164030    0.014323    0.003317
O    -2.076950   -1.334881    0.057844    0.034937    0.032541   -0.001828
O     0.454184    2.450898   -0.197064   -0.009986   -0.035204    0.002707
H     2.708633   -1.234661    0.179464    0.873838    1.070846   -0.069358
H    -0.054427   -2.115834    1.003523   -0.548232    0.093747   -0.015010
H    -1.745370    1.059252   -0.139462   -0.276052   -0.366995    0.024393
H     2.732832    0.576271    0.025248    0.407931   -0.993657    0.096289
H    -0.010734   -2.257508   -0.627987   -0.549965    0.091929   -0.030695
13
* Frequency(23) 1170.2654
C     1.594296    0.398583    0.009303   -0.098124   -0.013470   -0.001496
C     1.589318   -0.891993    0.119991    0.089049    0.082663   -0.004446
N     0.231441   -1.588375    0.142974   -0.044163    0.004414   -0.001653
C    -1.078077   -0.712795    0.031436   -0.008972    0.070563   -0.006427
N    -0.860972    0.538954   -0.070658   -0.102862   -0.126001    0.008008
C     0.485219    1.276952   -0.096627    0.164030    0.014323    0.003317
O    -2.076618   -1.334571    0.057826    0.034937    0.032541   -0.001828
O     0.454089    2.450563   -0.197038   -0.009986   -0.035204    0.002707
H     2.716947   -1.224473    0.178804    0.873838    1.070846   -0.069358
H    -0.059644   -2.114942    1.003380   -0.548232    0.093747   -0.015010
H    -1.747996    1.055760   -0.139230   -0.276052   -0.366995    0.024393
H     2.736713    0.566817    0.026164    0.407931   -0.993657    0.096289
H    -0.015966   -2.256633   -0.628279   -0.549965    0.091929   -0.030695
13
* Frequency(23) 1170.2654
C     1.597072    0.398964    0.009346   -0.098124   -0.013470   -0.001496
C     1.586799   -0.894331    0.120116    0.089049    0.082663   -0.004446
N     0.232690   -1.588500    0.143021   -0.044163    0.004414   -0.001653
C    -1.077823   -0.714791    0.031618   -0.008972    0.070563   -0.006427
N    -0.858062    0.542517   -0.070884   -0.102862   -0.126001    0.008008
C     0.480580    1.276547   -0.096721    0.164030    0.014323    0.003317
O    -2.077606   -1.335492    0.057878    0.034937    0.032541   -0.001828
O     0.454372    2.451559   -0.197115   -0.009986   -0.035204    0.002707
H     2.692232   -1.254761    0.180766    0.873838    1.070846   -0.069358
H    -0.044137   -2.117594    1.003805   -0.548232    0.093747   -0.015010
H    -1.740188    1.066140   -0.139920   -0.276052   -0.366995    0.024393
H     2.725175    0.594921    0.023441    0.407931   -0.993657    0.096289
H    -0.000411   -2.259233   -0.627411   -0.549965    0.091929   -0.030695
13
* Frequency(23) 1170.2654
C     1.603255    0.399813    0.009440   -0.098124   -0.013470   -0.001496
C     1.581188   -0.899540    0.120396    0.089049    0.082663   -0.004446
N     0.235473   -1.588778    0.143125   -0.044163    0.004414   -0.001653
C    -1.077258   -0.719238    0.032023   -0.008972    0.070563   -0.006427
N    -0.851580    0.550458   -0.071389   -0.102862   -0.126001    0.008008
C     0.470243    1.275644   -0.096930    0.164030    0.014323    0.003317
O    -2.079808   -1.337542    0.057993    0.034937    0.032541   -0.001828
O     0.455001    2.453778   -0.197285   -0.009986   -0.035204    0.002707
H     2.637165   -1.322242    0.185137    0.873838    1.070846   -0.069358
H    -0.009589   -2.123501    1.004751   -0.548232    0.093747   -0.015010
H    -1.722792    1.089267   -0.141457   -0.276052   -0.366995    0.024393
H     2.699469    0.657539    0.017373    0.407931   -0.993657    0.096289
H     0.034246   -2.265026   -0.625476   -0.549965    0.091929   -0.030695
13
* Frequency(23) 1170.2654
C     1.612177    0.401038    0.009576   -0.098124   -0.013470   -0.001496
C     1.573091   -0.907056    0.120801    0.089049    0.082663   -0.004446
N     0.239489   -1.589179    0.143276   -0.044163    0.004414   -0.001653
C    -1.076442   -0.725653    0.032607   -0.008972    0.070563   -0.006427
N    -0.842228    0.561914   -0.072117   -0.102862   -0.126001    0.008008
C     0.455329    1.274342   -0.097231    0.164030    0.014323    0.003317
O    -2.082984   -1.340501    0.058160    0.034937    0.032541   -0.001828
O     0.455909    2.456978   -0.197531   -0.009986   -0.035204    0.002707
H     2.557714   -1.419606    0.191443    0.873838    1.070846   -0.069358
H     0.040257   -2.132025    1.006115   -0.548232    0.093747   -0.015010
H    -1.697693    1.122635   -0.143675   -0.276052   -0.366995    0.024393
H     2.662379    0.747884    0.008618    0.407931   -0.993657    0.096289
H     0.084250   -2.273385   -0.622685   -0.549965    0.091929   -0.030695
13
* Frequency(23) 1170.2654
C     1.622870    0.402506    0.009739   -0.098124   -0.013470   -0.001496
C     1.563387   -0.916064    0.121285    0.089049    0.082663   -0.004446
N     0.244301   -1.589660    0.143456   -0.044163    0.004414   -0.001653
C    -1.075464   -0.733343    0.033308   -0.008972    0.070563   -0.006427
N    -0.831019    0.575645   -0.072990   -0.102862   -0.126001    0.008008
C     0.437454    1.272781   -0.097593    0.164030    0.014323    0.003317
O    -2.086792   -1.344047    0.058359    0.034937    0.032541   -0.001828
O     0.456997    2.460815   -0.197826   -0.009986   -0.035204    0.002707
H     2.462489   -1.536299    0.199001    0.873838    1.070846   -0.069358
H     0.100000   -2.142241    1.007751   -0.548232    0.093747   -0.015010
H    -1.667611    1.162628   -0.146333   -0.276052   -0.366995    0.024393
H     2.617925    0.856166   -0.001875    0.407931   -0.993657    0.096289
H     0.144182   -2.283403   -0.619340   -0.549965    0.091929   -0.030695
13
* Frequency(23) 1170.2654
C     1.634175    0.404058    0.009912   -0.098124   -0.013470   -0.001496
C     1.553127   -0.925588    0.121798    0.089049    0.082663   -0.004446
N     0.249390   -1.590169    0.143646   -0.044163    0.004414   -0.001653
C    -1.074431   -0.741473    0.034048   -0.008972    0.070563   -0.006427
N    -0.819167    0.590162   -0.073912   -0.102862   -0.126001    0.008008
C     0.418555    1.271131   -0.097975    0.164030    0.014323    0.003317
O    -2.090817   -1.347796    0.058570    0.034937    0.032541   -0.001828
O     0.458147    2.464871   -0.198138   -0.009986   -0.035204    0.002707
H     2.361808   -1.659678    0.206992    0.873838    1.070846   -0.069358
H     0.163165   -2.153042    1.009480   -0.548232    0.093747   -0.015010
H    -1.635805    1.204911   -0.149143   -0.276052   -0.366995    0.024393
H     2.570925    0.970652   -0.012969    0.407931   -0.993657    0.096289
H     0.207547   -2.293994   -0.615804   -0.549965    0.091929   -0.030695
13
* Frequency(23) 1170.2654
C     1.644868    0.405525    0.010075   -0.098124   -0.013470   -0.001496
C     1.543423   -0.934596    0.122282    0.089049    0.082663   -0.004446
N     0.254202   -1.590650    0.143826   -0.044163    0.004414   -0.001653
C    -1.073453   -0.749162    0.034748   -0.008972    0.070563   -0.006427
N    -0.807958    0.603893   -0.074785   -0.102862   -0.126001    0.008008
C     0.400681    1.269570   -0.098337    0.164030    0.014323    0.003317
O    -2.094624   -1.351342    0.058769    0.034937    0.032541   -0.001828
O     0.459236    2.468707   -0.198433   -0.009986   -0.035204    0.002707
H     2.266583   -1.776372    0.214551    0.873838    1.070846   -0.069358
H     0.222908   -2.163258    1.011116   -0.548232    0.093747   -0.015010
H    -1.605723    1.244904   -0.151801   -0.276052   -0.366995    0.024393
H     2.526471    1.078934   -0.023462    0.407931   -0.993657    0.096289
H     0.267478   -2.304012   -0.612459   -0.549965    0.091929   -0.030695
13
* Frequency(23) 1170.2654
C     1.653789    0.406750    0.010211   -0.098124   -0.013470   -0.001496
C     1.535327   -0.942112    0.122686    0.089049    0.082663   -0.004446
N     0.258218   -1.591051    0.143977   -0.044163    0.004414   -0.001653
C    -1.072637   -0.755578    0.035333   -0.008972    0.070563   -0.006427
N    -0.798605    0.615349   -0.075513   -0.102862   -0.126001    0.008008
C     0.385767    1.268268   -0.098638    0.164030    0.014323    0.003317
O    -2.097801   -1.354301    0.058935    0.034937    0.032541   -0.001828
O     0.460143    2.471908   -0.198679   -0.009986   -0.035204    0.002707
H     2.187132   -1.873735    0.220857    0.873838    1.070846   -0.069358
H     0.272754   -2.171782    1.012481   -0.548232    0.093747   -0.015010
H    -1.580624    1.278272   -0.154019   -0.276052   -0.366995    0.024393
H     2.489381    1.169279   -0.032217    0.407931   -0.993657    0.096289
H     0.317482   -2.312371   -0.609668   -0.549965    0.091929   -0.030695
13
* Frequency(23) 1170.2654
C     1.659973    0.407599    0.010305   -0.098124   -0.013470   -0.001496
C     1.529715   -0.947321    0.122967    0.089049    0.082663   -0.004446
N     0.261001   -1.591329    0.144081   -0.044163    0.004414   -0.001653
C    -1.072072   -0.760025    0.035738   -0.008972    0.070563   -0.006427
N    -0.792123    0.623289   -0.076018   -0.102862   -0.126001    0.008008
C     0.375430    1.267365   -0.098847    0.164030    0.014323    0.003317
O    -2.100002   -1.356352    0.059050    0.034937    0.032541   -0.001828
O     0.460773    2.474126   -0.198850   -0.009986   -0.035204    0.002707
H     2.132066   -1.941217    0.225227    0.873838    1.070846   -0.069358
H     0.307302   -2.177689    1.013427   -0.548232    0.093747   -0.015010
H    -1.563228    1.301399   -0.155556   -0.276052   -0.366995    0.024393
H     2.463675    1.231897   -0.038285    0.407931   -0.993657    0.096289
H     0.352139   -2.318164   -0.607734   -0.549965    0.091929   -0.030695
13
* Frequency(23) 1170.2654
C     1.662748    0.407980    0.010347   -0.098124   -0.013470   -0.001496
C     1.527196   -0.949659    0.123092    0.089049    0.082663   -0.004446
N     0.262250   -1.591454    0.144128   -0.044163    0.004414   -0.001653
C    -1.071818   -0.762021    0.035919   -0.008972    0.070563   -0.006427
N    -0.789214    0.626853   -0.076244   -0.102862   -0.126001    0.008008
C     0.370791    1.266960   -0.098941    0.164030    0.014323    0.003317
O    -2.100991   -1.357272    0.059102    0.034937    0.032541   -0.001828
O     0.461055    2.475122   -0.198926   -0.009986   -0.035204    0.002707
H     2.107350   -1.971505    0.227189    0.873838    1.070846   -0.069358
H     0.322808   -2.180341    1.013851   -0.548232    0.093747   -0.015010
H    -1.555420    1.311779   -0.156246   -0.276052   -0.366995    0.024393
H     2.452137    1.260001   -0.041008    0.407931   -0.993657    0.096289
H     0.367695   -2.320764   -0.606865   -0.549965    0.091929   -0.030695
13
* Frequency(23) 1170.2654
C     1.661815    0.407852    0.010333   -0.098124   -0.013470   -0.001496
C     1.528044   -0.948872    0.123050    0.089049    0.082663   -0.004446
N     0.261830   -1.591412    0.144112   -0.044163    0.004414   -0.001653
C    -1.071903   -0.761349    0.035858   -0.008972    0.070563   -0.006427
N    -0.790193    0.625654   -0.076168   -0.102862   -0.126001    0.008008
C     0.372351    1.267096   -0.098910    0.164030    0.014323    0.003317
O    -2.100658   -1.356962    0.059085    0.034937    0.032541   -0.001828
O     0.460960    2.474787   -0.198901   -0.009986   -0.035204    0.002707
H     2.115664   -1.961316    0.226529    0.873838    1.070846   -0.069358
H     0.317592   -2.179449    1.013708   -0.548232    0.093747   -0.015010
H    -1.558046    1.308287   -0.156014   -0.276052   -0.366995    0.024393
H     2.456018    1.250547   -0.040092    0.407931   -0.993657    0.096289
H     0.362462   -2.319889   -0.607158   -0.549965    0.091929   -0.030695
13
* Frequency(23) 1170.2654
C     1.657273    0.407228    0.010264   -0.098124   -0.013470   -0.001496
C     1.532165   -0.945047    0.122844    0.089049    0.082663   -0.004446
N     0.259786   -1.591208    0.144036   -0.044163    0.004414   -0.001653
C    -1.072318   -0.758084    0.035561   -0.008972    0.070563   -0.006427
N    -0.794953    0.619823   -0.075797   -0.102862   -0.126001    0.008008
C     0.379943    1.267759   -0.098756    0.164030    0.014323    0.003317
O    -2.099041   -1.355456    0.059000    0.034937    0.032541   -0.001828
O     0.460498    2.473158   -0.198775   -0.009986   -0.035204    0.002707
H     2.156107   -1.911755    0.223319    0.873838    1.070846   -0.069358
H     0.292219   -2.175110    1.013014   -0.548232    0.093747   -0.015010
H    -1.570823    1.291302   -0.154885   -0.276052   -0.366995    0.024393
H     2.474898    1.204559   -0.035636    0.407931   -0.993657    0.096289
H     0.337008   -2.315634   -0.608578   -0.549965    0.091929   -0.030695
13
* Frequency(23) 1170.2654
C     1.649616    0.406177    0.010147   -0.098124   -0.013470   -0.001496
C     1.539114   -0.938596    0.122497    0.089049    0.082663   -0.004446
N     0.256340   -1.590863    0.143906   -0.044163    0.004414   -0.001653
C    -1.073019   -0.752577    0.035059   -0.008972    0.070563   -0.006427
N    -0.802980    0.609990   -0.075173   -0.102862   -0.126001    0.008008
C     0.392743    1.268877   -0.098497    0.164030    0.014323    0.003317
O    -2.096315   -1.352917    0.058857    0.034937    0.032541   -0.001828
O     0.459719    2.470411   -0.198564   -0.009986   -0.035204    0.002707
H     2.224296   -1.828193    0.217907    0.873838    1.070846   -0.069358
H     0.249438   -2.167795    1.011842   -0.548232    0.093747   -0.015010
H    -1.592364    1.262664   -0.152982   -0.276052   -0.366995    0.024393
H     2.506730    1.127020   -0.028122    0.407931   -0.993657    0.096289
H     0.294093   -2.308461   -0.610973   -0.549965    0.091929   -0.030695
13
* Frequency(23) 1170.2654
C     1.639674    0.404812    0.009995   -0.098124   -0.013470   -0.001496
C     1.548137   -0.930220    0.122047    0.089049    0.082663   -0.004446
N     0.251865   -1.590416    0.143739   -0.044163    0.004414   -0.001653
C    -1.073928   -0.745427    0.034408   -0.008972    0.070563   -0.006427
N    -0.813403    0.597223   -0.074361   -0.102862   -0.126001    0.008008
C     0.409364    1.270328   -0.098161    0.164030    0.014323    0.003317
O    -2.092775   -1.349620    0.058672    0.034937    0.032541   -0.001828
O     0.458707    2.466843   -0.198290   -0.009986   -0.035204    0.002707
H     2.312841   -1.719685    0.210879    0.873838    1.070846   -0.069358
H     0.193886   -2.158295    1.010321   -0.548232    0.093747   -0.015010
H    -1.620336    1.225477   -0.150510   -0.276052   -0.366995    0.024393
H     2.548066    1.026333   -0.018365    0.407931   -0.993657    0.096289
H     0.238365   -2.299146   -0.614084   -0.549965    0.091929   -0.030695
13
* Frequency(23) 1170.2654
C     1.628522    0.403282    0.009825   -0.098124   -0.013470   -0.001496
C     1.558257   -0.920826    0.121541    0.089049    0.082663   -0.004446
N     0.246846   -1.589915    0.143551   -0.044163    0.004414   -0.001653
C    -1.074947   -0.737408    0.033678   -0.008972    0.070563   -0.006427
N    -0.825093    0.582903   -0.073451   -0.102862   -0.126001    0.008008
C     0.428005    1.271956   -0.097784    0.164030    0.014323    0.003317
O    -2.088804   -1.345922    0.058464    0.034937    0.032541   -0.001828
O     0.457572    2.462843   -0.197982   -0.009986   -0.035204    0.002707
H     2.412149   -1.597989    0.202997    0.873838    1.070846   -0.069358
H     0.131582   -2.147641    1.008616   -0.548232    0.093747   -0.015010
H    -1.651708    1.183769   -0.147738   -0.276052   -0.366995    0.024393
H     2.594425    0.913409   -0.007422    0.407931   -0.993657    0.096289
H     0.175864   -2.288698   -0.617572   -0.549965    0.091929   -0.030695
