13
* (null), Energy   -1000.0000000
C     1.372793    0.529851   -0.015036    0.202958   -0.336249    0.034884
C     1.302724   -0.794210    0.095800    0.303306   -0.463968    0.047498
N    -0.008640   -1.463020    0.118827    0.345773   -0.427860    0.046356
C    -1.330555   -0.610659    0.008144   -0.587166    0.311660   -0.043855
N    -1.080705    0.709657   -0.097399   -0.146540    0.357520   -0.033850
C     0.172593    1.398876   -0.122183    0.276429    0.464429   -0.033171
O    -2.344242   -1.219751    0.031049   -0.151388   -0.381135    0.028467
O     0.201841    2.589695   -0.223265   -0.254583    0.522149   -0.051376
H     2.156844   -1.471062    0.176152    0.516547   -0.237740    0.034726
H    -0.124198   -2.019917    0.984598    0.163765   -0.347292    0.055863
H    -1.907129    1.310644   -0.173530    0.076776    0.693676   -0.057023
H     2.338608    1.040183   -0.032851    0.424910   -0.727718    0.076147
H    -0.080594   -2.162817   -0.641747    0.163222   -0.354160    0.016291
13
* Frequency(14)  629.4792
C     1.395858    0.491638   -0.011072    0.202958   -0.336249    0.034884
C     1.337193   -0.846937    0.101198    0.303306   -0.463968    0.047498
N     0.030655   -1.511644    0.124095    0.345773   -0.427860    0.046356
C    -1.397284   -0.575241    0.003161   -0.587166    0.311660   -0.043855
N    -1.097358    0.750287   -0.101246   -0.146540    0.357520   -0.033850
C     0.204008    1.451656   -0.125952    0.276429    0.464429   -0.033171
O    -2.361446   -1.263065    0.034284   -0.151388   -0.381135    0.028467
O     0.172909    2.649035   -0.229103   -0.254583    0.522149   -0.051376
H     2.215547   -1.498080    0.180098    0.516547   -0.237740    0.034726
H    -0.105587   -2.059385    0.990947    0.163765   -0.347292    0.055863
H    -1.898404    1.389476   -0.180010    0.076776    0.693676   -0.057023
H     2.386896    0.957481   -0.024198    0.424910   -0.727718    0.076147
H    -0.062044   -2.203066   -0.639896    0.163222   -0.354160    0.016291
13
* Frequency(14)  629.4792
C     1.416424    0.457566   -0.007537    0.202958   -0.336249    0.034884
C     1.367927   -0.893951    0.106011    0.303306   -0.463968    0.047498
N     0.065692   -1.554999    0.128792    0.345773   -0.427860    0.046356
C    -1.456781   -0.543660   -0.001283   -0.587166    0.311660   -0.043855
N    -1.112207    0.786515   -0.104676   -0.146540    0.357520   -0.033850
C     0.232019    1.498716   -0.129314    0.276429    0.464429   -0.033171
O    -2.376786   -1.301685    0.037168   -0.151388   -0.381135    0.028467
O     0.147112    2.701944   -0.234309   -0.254583    0.522149   -0.051376
H     2.267888   -1.522170    0.183617    0.516547   -0.237740    0.034726
H    -0.088992   -2.094576    0.996607    0.163765   -0.347292    0.055863
H    -1.890624    1.459766   -0.185788    0.076776    0.693676   -0.057023
H     2.429952    0.883742   -0.016482    0.424910   -0.727718    0.076147
H    -0.045505   -2.238952   -0.638245    0.163222   -0.354160    0.016291
13
* Frequency(14)  629.4792
C     1.432261    0.431327   -0.004815    0.202958   -0.336249    0.034884
C     1.391595   -0.930156    0.109718    0.303306   -0.463968    0.047498
N     0.092674   -1.588387    0.132410    0.345773   -0.427860    0.046356
C    -1.502600   -0.519340   -0.004705   -0.587166    0.311660   -0.043855
N    -1.123642    0.814413   -0.107317   -0.146540    0.357520   -0.033850
C     0.253589    1.534957   -0.131902    0.276429    0.464429   -0.033171
O    -2.388600   -1.331426    0.039390   -0.151388   -0.381135    0.028467
O     0.127246    2.742689   -0.238318   -0.254583    0.522149   -0.051376
H     2.308196   -1.540722    0.186327    0.516547   -0.237740    0.034726
H    -0.076213   -2.121676    1.000967    0.163765   -0.347292    0.055863
H    -1.884633    1.513896   -0.190238    0.076776    0.693676   -0.057023
H     2.463110    0.826955   -0.010540    0.424910   -0.727718    0.076147
H    -0.032768   -2.266589   -0.636974    0.163222   -0.354160    0.016291
13
* Frequency(14)  629.4792
C     1.441654    0.415765   -0.003200    0.202958   -0.336249    0.034884
C     1.405633   -0.951629    0.111916    0.303306   -0.463968    0.047498
N     0.108677   -1.608189    0.134555    0.345773   -0.427860    0.046356
C    -1.529775   -0.504916   -0.006735   -0.587166    0.311660   -0.043855
N    -1.130424    0.830960   -0.108884   -0.146540    0.357520   -0.033850
C     0.266383    1.556452   -0.133437    0.276429    0.464429   -0.033171
O    -2.395606   -1.349066    0.040707   -0.151388   -0.381135    0.028467
O     0.115464    2.766855   -0.240696   -0.254583    0.522149   -0.051376
H     2.332103   -1.551725    0.187934    0.516547   -0.237740    0.034726
H    -0.068634   -2.137749    1.003552    0.163765   -0.347292    0.055863
H    -1.881080    1.546001   -0.192877    0.076776    0.693676   -0.057023
H     2.482775    0.793275   -0.007015    0.424910   -0.727718    0.076147
H    -0.025214   -2.282980   -0.636220    0.163222   -0.354160    0.016291
13
* Frequency(14)  629.4792
C     1.443585    0.412566   -0.002868    0.202958   -0.336249    0.034884
C     1.408519   -0.956044    0.112368    0.303306   -0.463968    0.047498
N     0.111967   -1.612260    0.134996    0.345773   -0.427860    0.046356
C    -1.535362   -0.501951   -0.007152   -0.587166    0.311660   -0.043855
N    -1.131819    0.834361   -0.109206   -0.146540    0.357520   -0.033850
C     0.269013    1.560871   -0.133753    0.276429    0.464429   -0.033171
O    -2.397047   -1.352692    0.040978   -0.151388   -0.381135    0.028467
O     0.113042    2.771823   -0.241185   -0.254583    0.522149   -0.051376
H     2.337018   -1.553987    0.188264    0.516547   -0.237740    0.034726
H    -0.067076   -2.141054    1.004084    0.163765   -0.347292    0.055863
H    -1.880349    1.552601   -0.193420    0.076776    0.693676   -0.057023
H     2.486818    0.786351   -0.006291    0.424910   -0.727718    0.076147
H    -0.023661   -2.286350   -0.636065    0.163222   -0.354160    0.016291
13
* Frequency(14)  629.4792
C     1.437845    0.422076   -0.003855    0.202958   -0.336249    0.034884
C     1.399940   -0.942921    0.111024    0.303306   -0.463968    0.047498
N     0.102187   -1.600158    0.133685    0.345773   -0.427860    0.046356
C    -1.518754   -0.510766   -0.005912   -0.587166    0.311660   -0.043855
N    -1.127674    0.824249   -0.108248   -0.146540    0.357520   -0.033850
C     0.261195    1.547735   -0.132815    0.276429    0.464429   -0.033171
O    -2.392765   -1.341912    0.040173   -0.151388   -0.381135    0.028467
O     0.120242    2.757055   -0.239732   -0.254583    0.522149   -0.051376
H     2.322408   -1.547262    0.187282    0.516547   -0.237740    0.034726
H    -0.071708   -2.131231    1.002504    0.163765   -0.347292    0.055863
H    -1.882521    1.532981   -0.191807    0.076776    0.693676   -0.057023
H     2.474800    0.806934   -0.008445    0.424910   -0.727718    0.076147
H    -0.028278   -2.276333   -0.636526    0.163222   -0.354160    0.016291
13
* Frequency(14)  629.4792
C     1.425055    0.443266   -0.006053    0.202958   -0.336249    0.034884
C     1.380826   -0.913683    0.108031    0.303306   -0.463968    0.047498
N     0.080398   -1.573196    0.130764    0.345773   -0.427860    0.046356
C    -1.481753   -0.530406   -0.003148   -0.587166    0.311660   -0.043855
N    -1.118439    0.801720   -0.106115   -0.146540    0.357520   -0.033850
C     0.243775    1.518468   -0.130724    0.276429    0.464429   -0.033171
O    -2.383225   -1.317894    0.038379   -0.151388   -0.381135    0.028467
O     0.136285    2.724150   -0.236494   -0.254583    0.522149   -0.051376
H     2.289856   -1.532281    0.185094    0.516547   -0.237740    0.034726
H    -0.082028   -2.109346    0.998983    0.163765   -0.347292    0.055863
H    -1.887359    1.489267   -0.188213    0.076776    0.693676   -0.057023
H     2.448023    0.852793   -0.013243    0.424910   -0.727718    0.076147
H    -0.038563   -2.254014   -0.637552    0.163222   -0.354160    0.016291
13
* Frequency(14)  629.4792
C     1.406602    0.473838   -0.009225    0.202958   -0.336249    0.034884
C     1.353249   -0.871498    0.103713    0.303306   -0.463968    0.047498
N     0.048959   -1.534294    0.126549    0.345773   -0.427860    0.046356
C    -1.428367   -0.558742    0.000839   -0.587166    0.311660   -0.043855
N    -1.105116    0.769213   -0.103037   -0.146540    0.357520   -0.033850
C     0.218641    1.476241   -0.127708    0.276429    0.464429   -0.033171
O    -2.369460   -1.283241    0.035791   -0.151388   -0.381135    0.028467
O     0.159432    2.676676   -0.231823   -0.254583    0.522149   -0.051376
H     2.242891   -1.510665    0.181937    0.516547   -0.237740    0.034726
H    -0.096917   -2.077769    0.993904    0.163765   -0.347292    0.055863
H    -1.894339    1.426197   -0.183029    0.076776    0.693676   -0.057023
H     2.409390    0.918958   -0.020167    0.424910   -0.727718    0.076147
H    -0.053404   -2.221814   -0.639033    0.163222   -0.354160    0.016291
13
* Frequency(14)  629.4792
C     1.384485    0.510480   -0.013026    0.202958   -0.336249    0.034884
C     1.320197   -0.820938    0.098537    0.303306   -0.463968    0.047498
N     0.011279   -1.487669    0.121498    0.345773   -0.427860    0.046356
C    -1.364381   -0.592705    0.005618   -0.587166    0.311660   -0.043855
N    -1.089147    0.730253   -0.099349   -0.146540    0.357520   -0.033850
C     0.188518    1.425631   -0.124094    0.276429    0.464429   -0.033171
O    -2.352963   -1.241707    0.032689   -0.151388   -0.381135    0.028467
O     0.187175    2.619775   -0.226224   -0.254583    0.522149   -0.051376
H     2.186601   -1.484757    0.178152    0.516547   -0.237740    0.034726
H    -0.114763   -2.039924    0.987816    0.163765   -0.347292    0.055863
H    -1.902706    1.350605   -0.176815    0.076776    0.693676   -0.057023
H     2.363086    0.998260   -0.028465    0.424910   -0.727718    0.076147
H    -0.071191   -2.183220   -0.640809    0.163222   -0.354160    0.016291
13
* Frequency(14)  629.4792
C     1.361101    0.549222   -0.017046    0.202958   -0.336249    0.034884
C     1.285251   -0.767481    0.093064    0.303306   -0.463968    0.047498
N    -0.028559   -1.438372    0.116157    0.345773   -0.427860    0.046356
C    -1.296730   -0.628613    0.010671   -0.587166    0.311660   -0.043855
N    -1.072263    0.689061   -0.095449   -0.146540    0.357520   -0.033850
C     0.156669    1.372121   -0.120272    0.276429    0.464429   -0.033171
O    -2.335521   -1.197794    0.029409   -0.151388   -0.381135    0.028467
O     0.216507    2.559615   -0.220305   -0.254583    0.522149   -0.051376
H     2.127086   -1.457366    0.174151    0.516547   -0.237740    0.034726
H    -0.133632   -1.999910    0.981380    0.163765   -0.347292    0.055863
H    -1.911552    1.270682   -0.170245    0.076776    0.693676   -0.057023
H     2.314129    1.082105   -0.037238    0.424910   -0.727718    0.076147
H    -0.089996   -2.142415   -0.642686    0.163222   -0.354160    0.016291
13
* Frequency(14)  629.4792
C     1.338984    0.585864   -0.020847    0.202958   -0.336249    0.034884
C     1.252199   -0.716921    0.087888    0.303306   -0.463968    0.047498
N    -0.066240   -1.391747    0.111105    0.345773   -0.427860    0.046356
C    -1.232744   -0.662576    0.015450   -0.587166    0.311660   -0.043855
N    -1.056294    0.650101   -0.091760   -0.146540    0.357520   -0.033850
C     0.126545    1.321511   -0.116657    0.276429    0.464429   -0.033171
O    -2.319023   -1.156261    0.026307   -0.151388   -0.381135    0.028467
O     0.244250    2.502715   -0.214706   -0.254583    0.522149   -0.051376
H     2.070796   -1.431459    0.170367    0.516547   -0.237740    0.034726
H    -0.151478   -1.962064    0.975292    0.163765   -0.347292    0.055863
H    -1.919918    1.195090   -0.164031    0.076776    0.693676   -0.057023
H     2.267825    1.161407   -0.045536    0.424910   -0.727718    0.076147
H    -0.107783   -2.103821   -0.644461    0.163222   -0.354160    0.016291
13
* Frequency(14)  629.4792
C     1.320530    0.616436   -0.024019    0.202958   -0.336249    0.034884
C     1.224622   -0.674736    0.083569    0.303306   -0.463968    0.047498
N    -0.097678   -1.352845    0.106890    0.345773   -0.427860    0.046356
C    -1.179358   -0.690913    0.019437   -0.587166    0.311660   -0.043855
N    -1.042970    0.617594   -0.088682   -0.146540    0.357520   -0.033850
C     0.101412    1.279284   -0.113641    0.276429    0.464429   -0.033171
O    -2.305259   -1.121607    0.023718   -0.151388   -0.381135    0.028467
O     0.267397    2.455240   -0.210035   -0.254583    0.522149   -0.051376
H     2.023831   -1.409843    0.167210    0.516547   -0.237740    0.034726
H    -0.166368   -1.930488    0.970213    0.163765   -0.347292    0.055863
H    -1.926899    1.132020   -0.158846    0.076776    0.693676   -0.057023
H     2.229192    1.227573   -0.052460    0.424910   -0.727718    0.076147
H    -0.122624   -2.071620   -0.645942    0.163222   -0.354160    0.016291
13
* Frequency(14)  629.4792
C     1.307740    0.637626   -0.026217    0.202958   -0.336249    0.034884
C     1.205508   -0.645498    0.080576    0.303306   -0.463968    0.047498
N    -0.119468   -1.325882    0.103969    0.345773   -0.427860    0.046356
C    -1.142357   -0.710553    0.022201   -0.587166    0.311660   -0.043855
N    -1.033736    0.595064   -0.086549   -0.146540    0.357520   -0.033850
C     0.083992    1.250017   -0.111551    0.276429    0.464429   -0.033171
O    -2.295719   -1.097589    0.021924   -0.151388   -0.381135    0.028467
O     0.283440    2.422336   -0.206798   -0.254583    0.522149   -0.051376
H     1.991279   -1.394861    0.165021    0.516547   -0.237740    0.034726
H    -0.176688   -1.908603    0.966693    0.163765   -0.347292    0.055863
H    -1.931737    1.088306   -0.155253    0.076776    0.693676   -0.057023
H     2.202415    1.273431   -0.057258    0.424910   -0.727718    0.076147
H    -0.132910   -2.049301   -0.646969    0.163222   -0.354160    0.016291
13
* Frequency(14)  629.4792
C     1.302000    0.647136   -0.027204    0.202958   -0.336249    0.034884
C     1.196929   -0.632375    0.079233    0.303306   -0.463968    0.047498
N    -0.129247   -1.313781    0.102658    0.345773   -0.427860    0.046356
C    -1.125749   -0.719367    0.023441   -0.587166    0.311660   -0.043855
N    -1.029591    0.584952   -0.085592   -0.146540    0.357520   -0.033850
C     0.076174    1.236881   -0.110613    0.276429    0.464429   -0.033171
O    -2.291437   -1.086809    0.021119   -0.151388   -0.381135    0.028467
O     0.290641    2.407567   -0.205345   -0.254583    0.522149   -0.051376
H     1.976670   -1.388137    0.164039    0.516547   -0.237740    0.034726
H    -0.181319   -1.898780    0.965113    0.163765   -0.347292    0.055863
H    -1.933909    1.068686   -0.153640    0.076776    0.693676   -0.057023
H     2.190397    1.294014   -0.059412    0.424910   -0.727718    0.076147
H    -0.137526   -2.039284   -0.647430    0.163222   -0.354160    0.016291
13
* Frequency(14)  629.4792
C     1.303931    0.643937   -0.026872    0.202958   -0.336249    0.034884
C     1.199815   -0.636790    0.079685    0.303306   -0.463968    0.047498
N    -0.125958   -1.317852    0.103099    0.345773   -0.427860    0.046356
C    -1.131336   -0.716402    0.023024   -0.587166    0.311660   -0.043855
N    -1.030985    0.588354   -0.085914   -0.146540    0.357520   -0.033850
C     0.078804    1.241300   -0.110928    0.276429    0.464429   -0.033171
O    -2.292877   -1.090436    0.021390   -0.151388   -0.381135    0.028467
O     0.288219    2.412535   -0.205833   -0.254583    0.522149   -0.051376
H     1.981584   -1.390399    0.164370    0.516547   -0.237740    0.034726
H    -0.179761   -1.902084    0.965644    0.163765   -0.347292    0.055863
H    -1.933178    1.075286   -0.154182    0.076776    0.693676   -0.057023
H     2.194440    1.287090   -0.058687    0.424910   -0.727718    0.076147
H    -0.135973   -2.042654   -0.647275    0.163222   -0.354160    0.016291
13
* Frequency(14)  629.4792
C     1.313324    0.628375   -0.025257    0.202958   -0.336249    0.034884
C     1.213853   -0.658263    0.081883    0.303306   -0.463968    0.047498
N    -0.109955   -1.337654    0.105245    0.345773   -0.427860    0.046356
C    -1.158511   -0.701978    0.020994   -0.587166    0.311660   -0.043855
N    -1.037768    0.604901   -0.087480   -0.146540    0.357520   -0.033850
C     0.091597    1.262794   -0.112463    0.276429    0.464429   -0.033171
O    -2.299884   -1.108075    0.022708   -0.151388   -0.381135    0.028467
O     0.276436    2.436701   -0.208211   -0.254583    0.522149   -0.051376
H     2.005491   -1.401402    0.165977    0.516547   -0.237740    0.034726
H    -0.172182   -1.918157    0.968230    0.163765   -0.347292    0.055863
H    -1.929625    1.107391   -0.156822    0.076776    0.693676   -0.057023
H     2.214105    1.253410   -0.055163    0.424910   -0.727718    0.076147
H    -0.128419   -2.059045   -0.646521    0.163222   -0.354160    0.016291
13
* Frequency(14)  629.4792
C     1.329162    0.602136   -0.022535    0.202958   -0.336249    0.034884
C     1.237521   -0.694468    0.085589    0.303306   -0.463968    0.047498
N    -0.082973   -1.371041    0.108862    0.345773   -0.427860    0.046356
C    -1.204330   -0.677658    0.017572   -0.587166    0.311660   -0.043855
N    -1.049203    0.632799   -0.090122   -0.146540    0.357520   -0.033850
C     0.113168    1.299035   -0.115052    0.276429    0.464429   -0.033171
O    -2.311697   -1.137817    0.024929   -0.151388   -0.381135    0.028467
O     0.256570    2.477446   -0.212220   -0.254583    0.522149   -0.051376
H     2.045799   -1.419954    0.168687    0.516547   -0.237740    0.034726
H    -0.159403   -1.945258    0.972589    0.163765   -0.347292    0.055863
H    -1.923634    1.161521   -0.161271    0.076776    0.693676   -0.057023
H     2.247263    1.196624   -0.049221    0.424910   -0.727718    0.076147
H    -0.115682   -2.086682   -0.645249    0.163222   -0.354160    0.016291
13
* Frequency(14)  629.4792
C     1.349728    0.568064   -0.019000    0.202958   -0.336249    0.034884
C     1.268255   -0.741482    0.090402    0.303306   -0.463968    0.047498
N    -0.047935   -1.414396    0.113559    0.345773   -0.427860    0.046356
C    -1.263827   -0.646078    0.013128   -0.587166    0.311660   -0.043855
N    -1.064051    0.669027   -0.093552   -0.146540    0.357520   -0.033850
C     0.141179    1.346096   -0.118413    0.276429    0.464429   -0.033171
O    -2.327037   -1.176437    0.027814   -0.151388   -0.381135    0.028467
O     0.230773    2.530356   -0.217426   -0.254583    0.522149   -0.051376
H     2.098141   -1.444044    0.172205    0.516547   -0.237740    0.034726
H    -0.142809   -1.980449    0.978250    0.163765   -0.347292    0.055863
H    -1.915854    1.231811   -0.167049    0.076776    0.693676   -0.057023
H     2.290319    1.122884   -0.041505    0.424910   -0.727718    0.076147
H    -0.099143   -2.122569   -0.643599    0.163222   -0.354160    0.016291
13
* Frequency(14)  629.4792
C     1.372793    0.529851   -0.015036    0.202958   -0.336249    0.034884
C     1.302724   -0.794210    0.095800    0.303306   -0.463968    0.047498
N    -0.008640   -1.463020    0.118827    0.345773   -0.427860    0.046356
C    -1.330555   -0.610659    0.008144   -0.587166    0.311660   -0.043855
N    -1.080705    0.709657   -0.097399   -0.146540    0.357520   -0.033850
C     0.172593    1.398876   -0.122183    0.276429    0.464429   -0.033171
O    -2.344242   -1.219751    0.031049   -0.151388   -0.381135    0.028467
O     0.201841    2.589695   -0.223265   -0.254583    0.522149   -0.051376
H     2.156844   -1.471062    0.176152    0.516547   -0.237740    0.034726
H    -0.124198   -2.019917    0.984598    0.163765   -0.347292    0.055863
H    -1.907129    1.310644   -0.173530    0.076776    0.693676   -0.057023
H     2.338608    1.040183   -0.032851    0.424910   -0.727718    0.076147
H    -0.080594   -2.162817   -0.641747    0.163222   -0.354160    0.016291
