13
* (null), Energy   -1000.0000000
C     1.372793    0.529851   -0.015036    0.010359   -0.025517   -0.253980
C     1.302724   -0.794210    0.095800    0.013045   -0.014374   -0.101058
N    -0.008640   -1.463020    0.118827   -0.001609   -0.000808   -0.086815
C    -1.330555   -0.610659    0.008144    0.000038    0.005026    0.141599
N    -1.080705    0.709657   -0.097399    0.001993   -0.022812   -0.208934
C     0.172593    1.398876   -0.122183   -0.019298    0.051358    0.538016
O    -2.344242   -1.219751    0.031049   -0.002000   -0.001464   -0.038988
O     0.201841    2.589695   -0.223265    0.005429   -0.005881   -0.144788
H     2.156844   -1.471062    0.176152   -0.038871    0.112285    1.521345
H    -0.124198   -2.019917    0.984598    0.190412    0.317196    0.138571
H    -1.907129    1.310644   -0.173530   -0.035615    0.049253    0.768522
H     2.338608    1.040183   -0.032851   -0.012948    0.047247    0.548227
H    -0.080594   -2.162817   -0.641747   -0.212122   -0.277715    0.182350
13
* Frequency(18)  817.5819
C     1.373970    0.526951   -0.043900    0.010359   -0.025517   -0.253980
C     1.304206   -0.795843    0.084316    0.013045   -0.014374   -0.101058
N    -0.008823   -1.463112    0.108961   -0.001609   -0.000808   -0.086815
C    -1.330551   -0.610088    0.024236    0.000038    0.005026    0.141599
N    -1.080478    0.707064   -0.121143    0.001993   -0.022812   -0.208934
C     0.170400    1.404712   -0.061040   -0.019298    0.051358    0.538016
O    -2.344469   -1.219917    0.026618   -0.002000   -0.001464   -0.038988
O     0.202458    2.589027   -0.239719    0.005429   -0.005881   -0.144788
H     2.152426   -1.458301    0.349045   -0.038871    0.112285    1.521345
H    -0.102558   -1.983869    1.000346    0.190412    0.317196    0.138571
H    -1.911176    1.316241   -0.086191   -0.035615    0.049253    0.768522
H     2.337136    1.045552    0.029452   -0.012948    0.047247    0.548227
H    -0.104700   -2.194378   -0.621024   -0.212122   -0.277715    0.182350
13
* Frequency(18)  817.5819
C     1.375020    0.524366   -0.069635    0.010359   -0.025517   -0.253980
C     1.305528   -0.797300    0.074075    0.013045   -0.014374   -0.101058
N    -0.008986   -1.463194    0.100164   -0.001609   -0.000808   -0.086815
C    -1.330547   -0.609579    0.038585    0.000038    0.005026    0.141599
N    -1.080277    0.704753   -0.142314    0.001993   -0.022812   -0.208934
C     0.168445    1.409916   -0.006523   -0.019298    0.051358    0.538016
O    -2.344672   -1.220066    0.022667   -0.002000   -0.001464   -0.038988
O     0.203008    2.588431   -0.254390    0.005429   -0.005881   -0.144788
H     2.148487   -1.446923    0.503202   -0.038871    0.112285    1.521345
H    -0.083264   -1.951728    1.014388    0.190412    0.317196    0.138571
H    -1.914785    1.321232   -0.008317   -0.035615    0.049253    0.768522
H     2.335824    1.050340    0.085003   -0.012948    0.047247    0.548227
H    -0.126194   -2.222519   -0.602547   -0.212122   -0.277715    0.182350
13
* Frequency(18)  817.5819
C     1.375828    0.522374   -0.089454    0.010359   -0.025517   -0.253980
C     1.306546   -0.798421    0.066189    0.013045   -0.014374   -0.101058
N    -0.009112   -1.463257    0.093390   -0.001609   -0.000808   -0.086815
C    -1.330544   -0.609186    0.049634    0.000038    0.005026    0.141599
N    -1.080121    0.702973   -0.158618    0.001993   -0.022812   -0.208934
C     0.166939    1.413924    0.035460   -0.019298    0.051358    0.538016
O    -2.344828   -1.220180    0.019625   -0.002000   -0.001464   -0.038988
O     0.203432    2.587972   -0.265689    0.005429   -0.005881   -0.144788
H     2.145454   -1.438161    0.621919   -0.038871    0.112285    1.521345
H    -0.068405   -1.926976    1.025201    0.190412    0.317196    0.138571
H    -1.917564    1.325075    0.051653   -0.035615    0.049253    0.768522
H     2.334814    1.054027    0.127783   -0.012948    0.047247    0.548227
H    -0.142747   -2.244190   -0.588317   -0.212122   -0.277715    0.182350
13
* Frequency(18)  817.5819
C     1.376307    0.521193   -0.101209    0.010359   -0.025517   -0.253980
C     1.307150   -0.799086    0.061512    0.013045   -0.014374   -0.101058
N    -0.009186   -1.463295    0.089372   -0.001609   -0.000808   -0.086815
C    -1.330543   -0.608954    0.056188    0.000038    0.005026    0.141599
N    -1.080029    0.701917   -0.168288    0.001993   -0.022812   -0.208934
C     0.166046    1.416301    0.060361   -0.019298    0.051358    0.538016
O    -2.344920   -1.220247    0.017821   -0.002000   -0.001464   -0.038988
O     0.203683    2.587700   -0.272390    0.005429   -0.005881   -0.144788
H     2.143655   -1.432964    0.692329   -0.038871    0.112285    1.521345
H    -0.059593   -1.912295    1.031614    0.190412    0.317196    0.138571
H    -1.919213    1.327355    0.087222   -0.035615    0.049253    0.768522
H     2.334214    1.056213    0.153156   -0.012948    0.047247    0.548227
H    -0.152565   -2.257043   -0.579878   -0.212122   -0.277715    0.182350
13
* Frequency(18)  817.5819
C     1.376406    0.520951   -0.103625    0.010359   -0.025517   -0.253980
C     1.307274   -0.799223    0.060551    0.013045   -0.014374   -0.101058
N    -0.009201   -1.463302    0.088546   -0.001609   -0.000808   -0.086815
C    -1.330542   -0.608906    0.057535    0.000038    0.005026    0.141599
N    -1.080010    0.701700   -0.170276    0.001993   -0.022812   -0.208934
C     0.165862    1.416790    0.065480   -0.019298    0.051358    0.538016
O    -2.344939   -1.220261    0.017450   -0.002000   -0.001464   -0.038988
O     0.203735    2.587644   -0.273767    0.005429   -0.005881   -0.144788
H     2.143285   -1.431896    0.706804   -0.038871    0.112285    1.521345
H    -0.057781   -1.909277    1.032933    0.190412    0.317196    0.138571
H    -1.919551    1.327823    0.094534   -0.035615    0.049253    0.768522
H     2.334091    1.056663    0.158372   -0.012948    0.047247    0.548227
H    -0.154583   -2.259685   -0.578143   -0.212122   -0.277715    0.182350
13
* Frequency(18)  817.5819
C     1.376113    0.521672   -0.096442    0.010359   -0.025517   -0.253980
C     1.306905   -0.798817    0.063409    0.013045   -0.014374   -0.101058
N    -0.009156   -1.463279    0.091001   -0.001609   -0.000808   -0.086815
C    -1.330543   -0.609048    0.053530    0.000038    0.005026    0.141599
N    -1.080066    0.702345   -0.164366    0.001993   -0.022812   -0.208934
C     0.166408    1.415337    0.050263   -0.019298    0.051358    0.538016
O    -2.344883   -1.220220    0.018552   -0.002000   -0.001464   -0.038988
O     0.203581    2.587810   -0.269672    0.005429   -0.005881   -0.144788
H     2.144385   -1.435072    0.663774   -0.038871    0.112285    1.521345
H    -0.063166   -1.918249    1.029013    0.190412    0.317196    0.138571
H    -1.918544    1.326430    0.072797   -0.035615    0.049253    0.768522
H     2.334457    1.055327    0.142867   -0.012948    0.047247    0.548227
H    -0.148583   -2.251830   -0.583300   -0.212122   -0.277715    0.182350
13
* Frequency(18)  817.5819
C     1.375460    0.523280   -0.080437    0.010359   -0.025517   -0.253980
C     1.306083   -0.797911    0.069778    0.013045   -0.014374   -0.101058
N    -0.009054   -1.463229    0.096472   -0.001609   -0.000808   -0.086815
C    -1.330546   -0.609365    0.044607    0.000038    0.005026    0.141599
N    -1.080192    0.703783   -0.151200    0.001993   -0.022812   -0.208934
C     0.167624    1.412101    0.016358   -0.019298    0.051358    0.538016
O    -2.344757   -1.220128    0.021009   -0.002000   -0.001464   -0.038988
O     0.203239    2.588181   -0.260548    0.005429   -0.005881   -0.144788
H     2.146834   -1.442148    0.567903   -0.038871    0.112285    1.521345
H    -0.075166   -1.938238    1.020281    0.190412    0.317196    0.138571
H    -1.916300    1.323326    0.024367   -0.035615    0.049253    0.768522
H     2.335273    1.052349    0.108319   -0.012948    0.047247    0.548227
H    -0.135216   -2.234330   -0.594792   -0.212122   -0.277715    0.182350
13
* Frequency(18)  817.5819
C     1.374518    0.525600   -0.057344    0.010359   -0.025517   -0.253980
C     1.304897   -0.796604    0.078966    0.013045   -0.014374   -0.101058
N    -0.008908   -1.463155    0.104365   -0.001609   -0.000808   -0.086815
C    -1.330549   -0.609822    0.031732    0.000038    0.005026    0.141599
N    -1.080373    0.705857   -0.132203    0.001993   -0.022812   -0.208934
C     0.169379    1.407431   -0.032559   -0.019298    0.051358    0.538016
O    -2.344575   -1.219995    0.024554   -0.002000   -0.001464   -0.038988
O     0.202746    2.588716   -0.247384    0.005429   -0.005881   -0.144788
H     2.150368   -1.452357    0.429580   -0.038871    0.112285    1.521345
H    -0.092478   -1.967078    1.007682    0.190412    0.317196    0.138571
H    -1.913062    1.318848   -0.045508   -0.035615    0.049253    0.768522
H     2.336451    1.048053    0.058473   -0.012948    0.047247    0.548227
H    -0.115929   -2.209079   -0.611371   -0.212122   -0.277715    0.182350
13
* Frequency(18)  817.5819
C     1.373389    0.528381   -0.029667    0.010359   -0.025517   -0.253980
C     1.303475   -0.795038    0.089978    0.013045   -0.014374   -0.101058
N    -0.008733   -1.463067    0.113826   -0.001609   -0.000808   -0.086815
C    -1.330553   -0.610370    0.016302    0.000038    0.005026    0.141599
N    -1.080590    0.708343   -0.109435    0.001993   -0.022812   -0.208934
C     0.171482    1.401834   -0.091189   -0.019298    0.051358    0.538016
O    -2.344357   -1.219835    0.028803   -0.002000   -0.001464   -0.038988
O     0.202154    2.589356   -0.231606    0.005429   -0.005881   -0.144788
H     2.154604   -1.464593    0.263794   -0.038871    0.112285    1.521345
H    -0.113228   -2.001644    0.992581    0.190412    0.317196    0.138571
H    -1.909181    1.313481   -0.129257   -0.035615    0.049253    0.768522
H     2.337862    1.042905   -0.001269   -0.012948    0.047247    0.548227
H    -0.092814   -2.178816   -0.631242   -0.212122   -0.277715    0.182350
13
* Frequency(18)  817.5819
C     1.372196    0.531321   -0.000405    0.010359   -0.025517   -0.253980
C     1.301972   -0.793381    0.101622    0.013045   -0.014374   -0.101058
N    -0.008547   -1.462974    0.123828   -0.001609   -0.000808   -0.086815
C    -1.330558   -0.610949   -0.000013    0.000038    0.005026    0.141599
N    -1.080820    0.710971   -0.085362    0.001993   -0.022812   -0.208934
C     0.173705    1.395917   -0.153177   -0.019298    0.051358    0.538016
O    -2.344127   -1.219667    0.033295   -0.002000   -0.001464   -0.038988
O     0.201528    2.590034   -0.214924    0.005429   -0.005881   -0.144788
H     2.159083   -1.477530    0.088510   -0.038871    0.112285    1.521345
H    -0.135167   -2.038190    0.976615    0.190412    0.317196    0.138571
H    -1.905077    1.307806   -0.217803   -0.035615    0.049253    0.768522
H     2.339353    1.037461   -0.064434   -0.012948    0.047247    0.548227
H    -0.068374   -2.146818   -0.652252   -0.212122   -0.277715    0.182350
13
* Frequency(18)  817.5819
C     1.371067    0.534102    0.027272    0.010359   -0.025517   -0.253980
C     1.300551   -0.791815    0.112635    0.013045   -0.014374   -0.101058
N    -0.008372   -1.462886    0.133289   -0.001609   -0.000808   -0.086815
C    -1.330562   -0.611497   -0.015443    0.000038    0.005026    0.141599
N    -1.081037    0.713457   -0.062594    0.001993   -0.022812   -0.208934
C     0.175808    1.390320   -0.211806   -0.019298    0.051358    0.538016
O    -2.343909   -1.219507    0.037543   -0.002000   -0.001464   -0.038988
O     0.200937    2.590675   -0.199146    0.005429   -0.005881   -0.144788
H     2.163319   -1.489766   -0.077276   -0.038871    0.112285    1.521345
H    -0.155917   -2.072756    0.961515    0.190412    0.317196    0.138571
H    -1.901196    1.302439   -0.301551   -0.035615    0.049253    0.768522
H     2.340764    1.032312   -0.124176   -0.012948    0.047247    0.548227
H    -0.045258   -2.116555   -0.672123   -0.212122   -0.277715    0.182350
13
* Frequency(18)  817.5819
C     1.370125    0.536422    0.050365    0.010359   -0.025517   -0.253980
C     1.299365   -0.790508    0.121823    0.013045   -0.014374   -0.101058
N    -0.008226   -1.462812    0.141182   -0.001609   -0.000808   -0.086815
C    -1.330565   -0.611954   -0.028318    0.000038    0.005026    0.141599
N    -1.081218    0.715531   -0.043597    0.001993   -0.022812   -0.208934
C     0.177563    1.385651   -0.260724   -0.019298    0.051358    0.538016
O    -2.343727   -1.219374    0.041088   -0.002000   -0.001464   -0.038988
O     0.200443    2.591210   -0.185981    0.005429   -0.005881   -0.144788
H     2.166853   -1.499975   -0.215600   -0.038871    0.112285    1.521345
H    -0.173229   -2.101596    0.948916    0.190412    0.317196    0.138571
H    -1.897958    1.297961   -0.371427   -0.035615    0.049253    0.768522
H     2.341942    1.028016   -0.174022   -0.012948    0.047247    0.548227
H    -0.025971   -2.091305   -0.688703   -0.212122   -0.277715    0.182350
13
* Frequency(18)  817.5819
C     1.369473    0.538030    0.066370    0.010359   -0.025517   -0.253980
C     1.298543   -0.789602    0.128191    0.013045   -0.014374   -0.101058
N    -0.008124   -1.462761    0.146653   -0.001609   -0.000808   -0.086815
C    -1.330568   -0.612270   -0.037241    0.000038    0.005026    0.141599
N    -1.081344    0.716969   -0.030431    0.001993   -0.022812   -0.208934
C     0.178779    1.382414   -0.294628   -0.019298    0.051358    0.538016
O    -2.343601   -1.219282    0.043545   -0.002000   -0.001464   -0.038988
O     0.200101    2.591580   -0.176857    0.005429   -0.005881   -0.144788
H     2.169302   -1.507051   -0.311471   -0.038871    0.112285    1.521345
H    -0.185229   -2.121585    0.940183    0.190412    0.317196    0.138571
H    -1.895714    1.294857   -0.419857   -0.035615    0.049253    0.768522
H     2.342758    1.025039   -0.208569   -0.012948    0.047247    0.548227
H    -0.012604   -2.073804   -0.700194   -0.212122   -0.277715    0.182350
13
* Frequency(18)  817.5819
C     1.369180    0.538751    0.073553    0.010359   -0.025517   -0.253980
C     1.298174   -0.789196    0.131050    0.013045   -0.014374   -0.101058
N    -0.008079   -1.462738    0.149109   -0.001609   -0.000808   -0.086815
C    -1.330569   -0.612412   -0.041246    0.000038    0.005026    0.141599
N    -1.081400    0.717614   -0.024521    0.001993   -0.022812   -0.208934
C     0.179325    1.380962   -0.309845   -0.019298    0.051358    0.538016
O    -2.343544   -1.219240    0.044648   -0.002000   -0.001464   -0.038988
O     0.199948    2.591747   -0.172762    0.005429   -0.005881   -0.144788
H     2.170402   -1.510227   -0.354500   -0.038871    0.112285    1.521345
H    -0.190614   -2.130556    0.936264    0.190412    0.317196    0.138571
H    -1.894706    1.293464   -0.441594   -0.035615    0.049253    0.768522
H     2.343124    1.023703   -0.224075   -0.012948    0.047247    0.548227
H    -0.006604   -2.065949   -0.705352   -0.212122   -0.277715    0.182350
13
* Frequency(18)  817.5819
C     1.369278    0.538509    0.071137    0.010359   -0.025517   -0.253980
C     1.298298   -0.789333    0.130088    0.013045   -0.014374   -0.101058
N    -0.008094   -1.462746    0.148283   -0.001609   -0.000808   -0.086815
C    -1.330568   -0.612365   -0.039899    0.000038    0.005026    0.141599
N    -1.081381    0.717397   -0.026509    0.001993   -0.022812   -0.208934
C     0.179141    1.381450   -0.304726   -0.019298    0.051358    0.538016
O    -2.343563   -1.219254    0.044277   -0.002000   -0.001464   -0.038988
O     0.199999    2.591691   -0.174140    0.005429   -0.005881   -0.144788
H     2.170032   -1.509159   -0.340026   -0.038871    0.112285    1.521345
H    -0.188803   -2.127538    0.937582    0.190412    0.317196    0.138571
H    -1.895045    1.293933   -0.434282   -0.035615    0.049253    0.768522
H     2.343001    1.024152   -0.218859   -0.012948    0.047247    0.548227
H    -0.008623   -2.068591   -0.703617   -0.212122   -0.277715    0.182350
13
* Frequency(18)  817.5819
C     1.369758    0.537328    0.059382    0.010359   -0.025517   -0.253980
C     1.298902   -0.789998    0.125411    0.013045   -0.014374   -0.101058
N    -0.008169   -1.462784    0.144265   -0.001609   -0.000808   -0.086815
C    -1.330567   -0.612132   -0.033345    0.000038    0.005026    0.141599
N    -1.081289    0.716341   -0.036179    0.001993   -0.022812   -0.208934
C     0.178248    1.383827   -0.279826   -0.019298    0.051358    0.538016
O    -2.343656   -1.219322    0.042473   -0.002000   -0.001464   -0.038988
O     0.200250    2.591418   -0.180841    0.005429   -0.005881   -0.144788
H     2.168233   -1.503962   -0.269615   -0.038871    0.112285    1.521345
H    -0.179990   -2.112858    0.943996    0.190412    0.317196    0.138571
H    -1.896693    1.296212   -0.398713   -0.035615    0.049253    0.768522
H     2.342401    1.026339   -0.193486   -0.012948    0.047247    0.548227
H    -0.018440   -2.081444   -0.695177   -0.212122   -0.277715    0.182350
13
* Frequency(18)  817.5819
C     1.370566    0.535337    0.039563    0.010359   -0.025517   -0.253980
C     1.299920   -0.791120    0.117525    0.013045   -0.014374   -0.101058
N    -0.008294   -1.462847    0.137490   -0.001609   -0.000808   -0.086815
C    -1.330564   -0.611740   -0.022296    0.000038    0.005026    0.141599
N    -1.081133    0.714561   -0.052483    0.001993   -0.022812   -0.208934
C     0.176742    1.387835   -0.237842   -0.019298    0.051358    0.538016
O    -2.343812   -1.219436    0.039430   -0.002000   -0.001464   -0.038988
O     0.200674    2.590960   -0.192139    0.005429   -0.005881   -0.144788
H     2.165200   -1.495200   -0.150899   -0.038871    0.112285    1.521345
H    -0.165131   -2.088106    0.954809    0.190412    0.317196    0.138571
H    -1.899473    1.300056   -0.338742   -0.035615    0.049253    0.768522
H     2.341391    1.030026   -0.150706   -0.012948    0.047247    0.548227
H    -0.034993   -2.103115   -0.680948   -0.212122   -0.277715    0.182350
13
* Frequency(18)  817.5819
C     1.371616    0.532751    0.013827    0.010359   -0.025517   -0.253980
C     1.301241   -0.792576    0.107285    0.013045   -0.014374   -0.101058
N    -0.008457   -1.462929    0.128693   -0.001609   -0.000808   -0.086815
C    -1.330560   -0.611230   -0.007948    0.000038    0.005026    0.141599
N    -1.080931    0.712249   -0.073654    0.001993   -0.022812   -0.208934
C     0.174786    1.393039   -0.183325   -0.019298    0.051358    0.538016
O    -2.344015   -1.219585    0.035479   -0.002000   -0.001464   -0.038988
O     0.201224    2.590364   -0.206810    0.005429   -0.005881   -0.144788
H     2.161261   -1.483822    0.003259   -0.038871    0.112285    1.521345
H    -0.145837   -2.055964    0.968850    0.190412    0.317196    0.138571
H    -1.903081    1.305046   -0.260868   -0.035615    0.049253    0.768522
H     2.340079    1.034813   -0.095155   -0.012948    0.047247    0.548227
H    -0.056487   -2.131256   -0.662470   -0.212122   -0.277715    0.182350
13
* Frequency(18)  817.5819
C     1.372793    0.529851   -0.015036    0.010359   -0.025517   -0.253980
C     1.302724   -0.794210    0.095800    0.013045   -0.014374   -0.101058
N    -0.008640   -1.463020    0.118827   -0.001609   -0.000808   -0.086815
C    -1.330555   -0.610659    0.008144    0.000038    0.005026    0.141599
N    -1.080705    0.709657   -0.097399    0.001993   -0.022812   -0.208934
C     0.172593    1.398876   -0.122183   -0.019298    0.051358    0.538016
O    -2.344242   -1.219751    0.031049   -0.002000   -0.001464   -0.038988
O     0.201841    2.589695   -0.223265    0.005429   -0.005881   -0.144788
H     2.156844   -1.471062    0.176152   -0.038871    0.112285    1.521345
H    -0.124198   -2.019917    0.984598    0.190412    0.317196    0.138571
H    -1.907129    1.310644   -0.173530   -0.035615    0.049253    0.768522
H     2.338608    1.040183   -0.032851   -0.012948    0.047247    0.548227
H    -0.080594   -2.162817   -0.641747   -0.212122   -0.277715    0.182350
