13
* (null), Energy   -1000.0000000
C     1.372793    0.529851   -0.015036   -0.035096    0.443388   -0.038765
C     1.302724   -0.794210    0.095800   -0.197178    0.452488   -0.043855
N    -0.008640   -1.463020    0.118827    0.068460   -0.378768    0.034270
C    -1.330555   -0.610659    0.008144   -0.294695   -0.514295    0.030720
N    -1.080705    0.709657   -0.097399    0.172107   -0.407259    0.041331
C     0.172593    1.398876   -0.122183    0.169558    0.318215   -0.023095
O    -2.344242   -1.219751    0.031049   -0.578615   -0.136416   -0.003370
O     0.201841    2.589695   -0.223265    0.556548    0.326799   -0.012827
H     2.156844   -1.471062    0.176152    0.014202    0.728544   -0.059312
H    -0.124198   -2.019917    0.984598    0.564472   -0.408515    0.082604
H    -1.907129    1.310644   -0.173530    0.045289   -0.580318    0.061636
H     2.338608    1.040183   -0.032851    0.068355    0.254023   -0.018485
H    -0.080594   -2.162817   -0.641747    0.573858   -0.431524    0.033690
13
* Frequency(12)  529.5650
C     1.368804    0.580240   -0.019442   -0.035096    0.443388   -0.038765
C     1.280316   -0.742787    0.090816   -0.197178    0.452488   -0.043855
N    -0.000860   -1.506065    0.122722    0.068460   -0.378768    0.034270
C    -1.364046   -0.669106    0.011636   -0.294695   -0.514295    0.030720
N    -1.061146    0.663374   -0.092702    0.172107   -0.407259    0.041331
C     0.191863    1.435039   -0.124807    0.169558    0.318215   -0.023095
O    -2.409999   -1.235254    0.030666   -0.578615   -0.136416   -0.003370
O     0.265090    2.626834   -0.224722    0.556548    0.326799   -0.012827
H     2.158458   -1.388266    0.169411    0.014202    0.728544   -0.059312
H    -0.060048   -2.066342    0.993986    0.564472   -0.408515    0.082604
H    -1.901982    1.244694   -0.166525    0.045289   -0.580318    0.061636
H     2.346376    1.069051   -0.034952    0.068355    0.254023   -0.018485
H    -0.015378   -2.211858   -0.637918    0.573858   -0.431524    0.033690
13
* Frequency(12)  529.5650
C     1.365248    0.625168   -0.023370   -0.035096    0.443388   -0.038765
C     1.260336   -0.696936    0.086373   -0.197178    0.452488   -0.043855
N     0.006077   -1.544446    0.126194    0.068460   -0.378768    0.034270
C    -1.393907   -0.721219    0.014749   -0.294695   -0.514295    0.030720
N    -1.043706    0.622107   -0.088513    0.172107   -0.407259    0.041331
C     0.209044    1.467284   -0.127148    0.169558    0.318215   -0.023095
O    -2.468629   -1.249077    0.030324   -0.578615   -0.136416   -0.003370
O     0.321485    2.659949   -0.226022    0.556548    0.326799   -0.012827
H     2.159897   -1.314443    0.163401    0.014202    0.728544   -0.059312
H    -0.002850   -2.107737    1.002356    0.564472   -0.408515    0.082604
H    -1.897393    1.185890   -0.160280    0.045289   -0.580318    0.061636
H     2.353302    1.094791   -0.036825    0.068355    0.254023   -0.018485
H     0.042771   -2.255584   -0.634505    0.573858   -0.431524    0.033690
13
* Frequency(12)  529.5650
C     1.362509    0.659767   -0.026394   -0.035096    0.443388   -0.038765
C     1.244949   -0.661627    0.082950   -0.197178    0.452488   -0.043855
N     0.011419   -1.574003    0.128869    0.068460   -0.378768    0.034270
C    -1.416903   -0.761352    0.017146   -0.294695   -0.514295    0.030720
N    -1.030276    0.590327   -0.085288    0.172107   -0.407259    0.041331
C     0.222275    1.492115   -0.128950    0.169558    0.318215   -0.023095
O    -2.513781   -1.259722    0.030061   -0.578615   -0.136416   -0.003370
O     0.364914    2.685450   -0.227023    0.556548    0.326799   -0.012827
H     2.161005   -1.257592    0.158773    0.014202    0.728544   -0.059312
H     0.041197   -2.139615    1.008802    0.564472   -0.408515    0.082604
H    -1.893859    1.140606   -0.155470    0.045289   -0.580318    0.061636
H     2.358636    1.114614   -0.038268    0.068355    0.254023   -0.018485
H     0.087552   -2.289257   -0.631876    0.573858   -0.431524    0.033690
13
* Frequency(12)  529.5650
C     1.360885    0.680288   -0.028189   -0.035096    0.443388   -0.038765
C     1.235824   -0.640685    0.080921   -0.197178    0.452488   -0.043855
N     0.014588   -1.591533    0.130455    0.068460   -0.378768    0.034270
C    -1.430542   -0.785154    0.018568   -0.294695   -0.514295    0.030720
N    -1.022311    0.571478   -0.083375    0.172107   -0.407259    0.041331
C     0.230123    1.506843   -0.130019    0.169558    0.318215   -0.023095
O    -2.540560   -1.266035    0.029905   -0.578615   -0.136416   -0.003370
O     0.390672    2.700575   -0.227617    0.556548    0.326799   -0.012827
H     2.161662   -1.223874    0.156028    0.014202    0.728544   -0.059312
H     0.067322   -2.158522    1.012625    0.564472   -0.408515    0.082604
H    -1.891763    1.113748   -0.152617    0.045289   -0.580318    0.061636
H     2.361800    1.126370   -0.039123    0.068355    0.254023   -0.018485
H     0.114111   -2.309229   -0.630316    0.573858   -0.431524    0.033690
13
* Frequency(12)  529.5650
C     1.360551    0.684507   -0.028557   -0.035096    0.443388   -0.038765
C     1.233948   -0.636380    0.080503   -0.197178    0.452488   -0.043855
N     0.015239   -1.595136    0.130781    0.068460   -0.378768    0.034270
C    -1.433346   -0.790047    0.018860   -0.294695   -0.514295    0.030720
N    -1.020673    0.567603   -0.082982    0.172107   -0.407259    0.041331
C     0.231736    1.509871   -0.130238    0.169558    0.318215   -0.023095
O    -2.546066   -1.267333    0.029873   -0.578615   -0.136416   -0.003370
O     0.395968    2.703684   -0.227739    0.556548    0.326799   -0.012827
H     2.161797   -1.216942    0.155464    0.014202    0.728544   -0.059312
H     0.072693   -2.162409    1.013411    0.564472   -0.408515    0.082604
H    -1.891332    1.108226   -0.152031    0.045289   -0.580318    0.061636
H     2.362450    1.128787   -0.039299    0.068355    0.254023   -0.018485
H     0.119571   -2.313335   -0.629996    0.573858   -0.431524    0.033690
13
* Frequency(12)  529.5650
C     1.361544    0.671966   -0.027461   -0.035096    0.443388   -0.038765
C     1.239524   -0.649178    0.081744   -0.197178    0.452488   -0.043855
N     0.013303   -1.584423    0.129811    0.068460   -0.378768    0.034270
C    -1.425011   -0.775501    0.017991   -0.294695   -0.514295    0.030720
N    -1.025541    0.579122   -0.084151    0.172107   -0.407259    0.041331
C     0.226940    1.500870   -0.129585    0.169558    0.318215   -0.023095
O    -2.529700   -1.263475    0.029969   -0.578615   -0.136416   -0.003370
O     0.380226    2.694441   -0.227376    0.556548    0.326799   -0.012827
H     2.161396   -1.237548    0.157141    0.014202    0.728544   -0.059312
H     0.056727   -2.150854    1.011074    0.564472   -0.408515    0.082604
H    -1.892613    1.124640   -0.153774    0.045289   -0.580318    0.061636
H     2.360517    1.121602   -0.038776    0.068355    0.254023   -0.018485
H     0.103340   -2.301130   -0.630949    0.573858   -0.431524    0.033690
13
* Frequency(12)  529.5650
C     1.363755    0.644025   -0.025018   -0.035096    0.443388   -0.038765
C     1.251950   -0.677692    0.084507   -0.197178    0.452488   -0.043855
N     0.008988   -1.560554    0.127652    0.068460   -0.378768    0.034270
C    -1.406440   -0.743092    0.016055   -0.294695   -0.514295    0.030720
N    -1.036387    0.604786   -0.086756    0.172107   -0.407259    0.041331
C     0.216255    1.480817   -0.128130    0.169558    0.318215   -0.023095
O    -2.493237   -1.254878    0.030181   -0.578615   -0.136416   -0.003370
O     0.345154    2.673847   -0.226568    0.556548    0.326799   -0.012827
H     2.160501   -1.283459    0.160879    0.014202    0.728544   -0.059312
H     0.021156   -2.125111    1.005869    0.564472   -0.408515    0.082604
H    -1.895467    1.161210   -0.157658    0.045289   -0.580318    0.061636
H     2.356209    1.105594   -0.037611    0.068355    0.254023   -0.018485
H     0.067177   -2.273936   -0.633072    0.573858   -0.431524    0.033690
13
* Frequency(12)  529.5650
C     1.366946    0.603711   -0.021494   -0.035096    0.443388   -0.038765
C     1.269878   -0.718833    0.088495   -0.197178    0.452488   -0.043855
N     0.002764   -1.526116    0.124536    0.068460   -0.378768    0.034270
C    -1.379646   -0.696331    0.013262   -0.294695   -0.514295    0.030720
N    -1.052035    0.641815   -0.090514    0.172107   -0.407259    0.041331
C     0.200838    1.451884   -0.126030    0.169558    0.318215   -0.023095
O    -2.440629   -1.242475    0.030487   -0.578615   -0.136416   -0.003370
O     0.294552    2.644134   -0.225401    0.556548    0.326799   -0.012827
H     2.159209   -1.349700    0.166272    0.014202    0.728544   -0.059312
H    -0.030167   -2.087968    0.998358    0.564472   -0.408515    0.082604
H    -1.899584    1.213973   -0.163262    0.045289   -0.580318    0.061636
H     2.349994    1.082498   -0.035931    0.068355    0.254023   -0.018485
H     0.015001   -2.234701   -0.636135    0.573858   -0.431524    0.033690
13
* Frequency(12)  529.5650
C     1.370771    0.555394   -0.017269   -0.035096    0.443388   -0.038765
C     1.291365   -0.768143    0.093274   -0.197178    0.452488   -0.043855
N    -0.004696   -1.484840    0.120801    0.068460   -0.378768    0.034270
C    -1.347532   -0.640287    0.009914   -0.294695   -0.514295    0.030720
N    -1.070790    0.686196   -0.095018    0.172107   -0.407259    0.041331
C     0.182361    1.417208   -0.123513    0.169558    0.318215   -0.023095
O    -2.377575   -1.227610    0.030855   -0.578615   -0.136416   -0.003370
O     0.233903    2.608522   -0.224004    0.556548    0.326799   -0.012827
H     2.157662   -1.429092    0.172735    0.014202    0.728544   -0.059312
H    -0.091679   -2.043451    0.989357    0.564472   -0.408515    0.082604
H    -1.904520    1.277213   -0.169979    0.045289   -0.580318    0.061636
H     2.342545    1.054817   -0.033916    0.068355    0.254023   -0.018485
H    -0.047535   -2.187676   -0.639806    0.573858   -0.431524    0.033690
13
* Frequency(12)  529.5650
C     1.374815    0.504308   -0.012803   -0.035096    0.443388   -0.038765
C     1.314083   -0.820276    0.098327   -0.197178    0.452488   -0.043855
N    -0.012584   -1.441200    0.116853    0.068460   -0.378768    0.034270
C    -1.313579   -0.581032    0.006375   -0.294695   -0.514295    0.030720
N    -1.090620    0.733118   -0.099780    0.172107   -0.407259    0.041331
C     0.162825    1.380544   -0.120852    0.169558    0.318215   -0.023095
O    -2.310909   -1.211892    0.031243   -0.578615   -0.136416   -0.003370
O     0.169780    2.570869   -0.222526    0.556548    0.326799   -0.012827
H     2.156025   -1.513032    0.179569    0.014202    0.728544   -0.059312
H    -0.156716   -1.996383    0.979840    0.564472   -0.408515    0.082604
H    -1.909738    1.344075   -0.177080    0.045289   -0.580318    0.061636
H     2.334670    1.025549   -0.031787    0.068355    0.254023   -0.018485
H    -0.113652   -2.137958   -0.643688    0.573858   -0.431524    0.033690
13
* Frequency(12)  529.5650
C     1.378639    0.455991   -0.008579   -0.035096    0.443388   -0.038765
C     1.335570   -0.869586    0.103106   -0.197178    0.452488   -0.043855
N    -0.020044   -1.399925    0.113119    0.068460   -0.378768    0.034270
C    -1.281465   -0.524987    0.003027   -0.294695   -0.514295    0.030720
N    -1.109375    0.777499   -0.104284    0.172107   -0.407259    0.041331
C     0.144348    1.345867   -0.118336    0.169558    0.318215   -0.023095
O    -2.247855   -1.197027    0.031610   -0.578615   -0.136416   -0.003370
O     0.109131    2.535257   -0.221128    0.556548    0.326799   -0.012827
H     2.154478   -1.592424    0.186032    0.014202    0.728544   -0.059312
H    -0.218228   -1.951866    0.970838    0.564472   -0.408515    0.082604
H    -1.914673    1.407314   -0.183797    0.045289   -0.580318    0.061636
H     2.327221    0.997867   -0.029772    0.068355    0.254023   -0.018485
H    -0.176188   -2.090933   -0.647359    0.573858   -0.431524    0.033690
13
* Frequency(12)  529.5650
C     1.381830    0.415677   -0.005054   -0.035096    0.443388   -0.038765
C     1.353498   -0.910727    0.107093   -0.197178    0.452488   -0.043855
N    -0.026269   -1.365486    0.110003    0.068460   -0.378768    0.034270
C    -1.254671   -0.478227    0.000234   -0.294695   -0.514295    0.030720
N    -1.125023    0.814528   -0.108042    0.172107   -0.407259    0.041331
C     0.128932    1.316934   -0.116236    0.169558    0.318215   -0.023095
O    -2.195246   -1.184623    0.031916   -0.578615   -0.136416   -0.003370
O     0.058528    2.505543   -0.219962    0.556548    0.326799   -0.012827
H     2.153186   -1.658664    0.191425    0.014202    0.728544   -0.059312
H    -0.269551   -1.914723    0.963327    0.564472   -0.408515    0.082604
H    -1.918791    1.460077   -0.189401    0.045289   -0.580318    0.061636
H     2.321006    0.974771   -0.028091    0.068355    0.254023   -0.018485
H    -0.228364   -2.051698   -0.650423    0.573858   -0.431524    0.033690
13
* Frequency(12)  529.5650
C     1.384042    0.387736   -0.002611   -0.035096    0.443388   -0.038765
C     1.365923   -0.939241    0.109857   -0.197178    0.452488   -0.043855
N    -0.030583   -1.341617    0.107843    0.068460   -0.378768    0.034270
C    -1.236100   -0.445817   -0.001702   -0.294695   -0.514295    0.030720
N    -1.135869    0.840192   -0.110646    0.172107   -0.407259    0.041331
C     0.118247    1.296881   -0.114780    0.169558    0.318215   -0.023095
O    -2.158784   -1.176027    0.032129   -0.578615   -0.136416   -0.003370
O     0.023456    2.484949   -0.219153    0.556548    0.326799   -0.012827
H     2.152291   -1.704575    0.195162    0.014202    0.728544   -0.059312
H    -0.305123   -1.888979    0.958122    0.564472   -0.408515    0.082604
H    -1.921645    1.496647   -0.193285    0.045289   -0.580318    0.061636
H     2.316698    0.958763   -0.026927    0.068355    0.254023   -0.018485
H    -0.264527   -2.024505   -0.652546    0.573858   -0.431524    0.033690
13
* Frequency(12)  529.5650
C     1.385035    0.375195   -0.001515   -0.035096    0.443388   -0.038765
C     1.371500   -0.952039    0.111097   -0.197178    0.452488   -0.043855
N    -0.032519   -1.330904    0.106874    0.068460   -0.378768    0.034270
C    -1.227765   -0.431271   -0.002571   -0.294695   -0.514295    0.030720
N    -1.140737    0.851711   -0.111815    0.172107   -0.407259    0.041331
C     0.113451    1.287881   -0.114127    0.169558    0.318215   -0.023095
O    -2.142418   -1.172168    0.032224   -0.578615   -0.136416   -0.003370
O     0.007715    2.475706   -0.218791    0.556548    0.326799   -0.012827
H     2.151890   -1.725181    0.196840    0.014202    0.728544   -0.059312
H    -0.321088   -1.877425    0.955786    0.564472   -0.408515    0.082604
H    -1.922926    1.513061   -0.195029    0.045289   -0.580318    0.061636
H     2.314765    0.951578   -0.026404    0.068355    0.254023   -0.018485
H    -0.280758   -2.012299   -0.653499    0.573858   -0.431524    0.033690
13
* Frequency(12)  529.5650
C     1.384701    0.379414   -0.001884   -0.035096    0.443388   -0.038765
C     1.369624   -0.947734    0.110680   -0.197178    0.452488   -0.043855
N    -0.031868   -1.334508    0.107200    0.068460   -0.378768    0.034270
C    -1.230568   -0.436164   -0.002279   -0.294695   -0.514295    0.030720
N    -1.139099    0.847836   -0.111422    0.172107   -0.407259    0.041331
C     0.115064    1.290909   -0.114347    0.169558    0.318215   -0.023095
O    -2.147923   -1.173466    0.032192   -0.578615   -0.136416   -0.003370
O     0.013010    2.478816   -0.218913    0.556548    0.326799   -0.012827
H     2.152025   -1.718249    0.196276    0.014202    0.728544   -0.059312
H    -0.315717   -1.881312    0.956572    0.564472   -0.408515    0.082604
H    -1.922495    1.507540   -0.194442    0.045289   -0.580318    0.061636
H     2.315415    0.953995   -0.026580    0.068355    0.254023   -0.018485
H    -0.275298   -2.016405   -0.653178    0.573858   -0.431524    0.033690
13
* Frequency(12)  529.5650
C     1.383076    0.399935   -0.003678   -0.035096    0.443388   -0.038765
C     1.360499   -0.926792    0.108650   -0.197178    0.452488   -0.043855
N    -0.028699   -1.352038    0.108786    0.068460   -0.378768    0.034270
C    -1.244207   -0.459967   -0.000857   -0.294695   -0.514295    0.030720
N    -1.131134    0.828987   -0.109509    0.172107   -0.407259    0.041331
C     0.122912    1.305636   -0.115416    0.169558    0.318215   -0.023095
O    -2.174703   -1.179780    0.032036   -0.578615   -0.136416   -0.003370
O     0.038768    2.493940   -0.219506    0.556548    0.326799   -0.012827
H     2.152682   -1.684531    0.193531    0.014202    0.728544   -0.059312
H    -0.289593   -1.900218    0.960395    0.564472   -0.408515    0.082604
H    -1.920399    1.480681   -0.191590    0.045289   -0.580318    0.061636
H     2.318579    0.965752   -0.027435    0.068355    0.254023   -0.018485
H    -0.248739   -2.036377   -0.651619    0.573858   -0.431524    0.033690
13
* Frequency(12)  529.5650
C     1.380338    0.434534   -0.006703   -0.035096    0.443388   -0.038765
C     1.345112   -0.891483    0.105228   -0.197178    0.452488   -0.043855
N    -0.023357   -1.381595    0.111460    0.068460   -0.378768    0.034270
C    -1.267204   -0.500099    0.001540   -0.294695   -0.514295    0.030720
N    -1.117704    0.797207   -0.106284    0.172107   -0.407259    0.041331
C     0.136143    1.330468   -0.117218    0.169558    0.318215   -0.023095
O    -2.219854   -1.190425    0.031773   -0.578615   -0.136416   -0.003370
O     0.082198    2.519442   -0.220507    0.556548    0.326799   -0.012827
H     2.153790   -1.627680    0.188902    0.014202    0.728544   -0.059312
H    -0.245545   -1.932096    0.966840    0.564472   -0.408515    0.082604
H    -1.916865    1.435397   -0.186780    0.045289   -0.580318    0.061636
H     2.323913    0.985574   -0.028878    0.068355    0.254023   -0.018485
H    -0.203958   -2.070050   -0.648990    0.573858   -0.431524    0.033690
13
* Frequency(12)  529.5650
C     1.376781    0.479462   -0.010631   -0.035096    0.443388   -0.038765
C     1.325132   -0.845632    0.100784   -0.197178    0.452488   -0.043855
N    -0.016420   -1.419975    0.114933    0.068460   -0.378768    0.034270
C    -1.297065   -0.552212    0.004653   -0.294695   -0.514295    0.030720
N    -1.100264    0.755940   -0.102096    0.172107   -0.407259    0.041331
C     0.153324    1.362712   -0.119558    0.169558    0.318215   -0.023095
O    -2.278485   -1.204248    0.031432   -0.578615   -0.136416   -0.003370
O     0.138592    2.552556   -0.221807    0.556548    0.326799   -0.012827
H     2.155230   -1.553857    0.182892    0.014202    0.728544   -0.059312
H    -0.188347   -1.973491    0.975211    0.564472   -0.408515    0.082604
H    -1.912276    1.376594   -0.180534    0.045289   -0.580318    0.061636
H     2.330839    1.011314   -0.030751    0.068355    0.254023   -0.018485
H    -0.145810   -2.113777   -0.645576    0.573858   -0.431524    0.033690
13
* Frequency(12)  529.5650
C     1.372793    0.529851   -0.015036   -0.035096    0.443388   -0.038765
C     1.302724   -0.794210    0.095800   -0.197178    0.452488   -0.043855
N    -0.008640   -1.463020    0.118827    0.068460   -0.378768    0.034270
C    -1.330555   -0.610659    0.008144   -0.294695   -0.514295    0.030720
N    -1.080705    0.709657   -0.097399    0.172107   -0.407259    0.041331
C     0.172593    1.398876   -0.122183    0.169558    0.318215   -0.023095
O    -2.344242   -1.219751    0.031049   -0.578615   -0.136416   -0.003370
O     0.201841    2.589695   -0.223265    0.556548    0.326799   -0.012827
H     2.156844   -1.471062    0.176152    0.014202    0.728544   -0.059312
H    -0.124198   -2.019917    0.984598    0.564472   -0.408515    0.082604
H    -1.907129    1.310644   -0.173530    0.045289   -0.580318    0.061636
H     2.338608    1.040183   -0.032851    0.068355    0.254023   -0.018485
H    -0.080594   -2.162817   -0.641747    0.573858   -0.431524    0.033690
