13
* (null), Energy   -1000.0000000
C     1.372793    0.529851   -0.015036   -0.014011    0.043948    0.515968
C     1.302724   -0.794210    0.095800    0.013312   -0.042515   -0.499830
N    -0.008640   -1.463020    0.118827   -0.001919    0.006975    0.072703
C    -1.330555   -0.610659    0.008144   -0.000289    0.000060    0.000221
N    -1.080705    0.709657   -0.097399    0.002948   -0.010414   -0.123709
C     0.172593    1.398876   -0.122183   -0.007440    0.022783    0.268580
O    -2.344242   -1.219751    0.031049   -0.000953    0.002647    0.039555
O     0.201841    2.589695   -0.223265    0.005973   -0.016877   -0.194246
H     2.156844   -1.471062    0.176152    0.033873   -0.109310   -1.279665
H    -0.124198   -2.019917    0.984598    0.255297    0.533450    0.451322
H    -1.907129    1.310644   -0.173530    0.014266   -0.042927   -0.502928
H     2.338608    1.040183   -0.032851   -0.015962    0.049772    0.576996
H    -0.080594   -2.162817   -0.641747   -0.281017   -0.446604    0.523069
13
* Frequency(8)  309.7634
C     1.371200    0.534846    0.043601   -0.014011    0.043948    0.515968
C     1.304237   -0.799041    0.038997    0.013312   -0.042515   -0.499830
N    -0.008858   -1.462228    0.127090   -0.001919    0.006975    0.072703
C    -1.330588   -0.610652    0.008170   -0.000289    0.000060    0.000221
N    -1.080370    0.708474   -0.111457    0.002948   -0.010414   -0.123709
C     0.171748    1.401465   -0.091660   -0.007440    0.022783    0.268580
O    -2.344350   -1.219450    0.035544   -0.000953    0.002647    0.039555
O     0.202520    2.587777   -0.245340    0.005973   -0.016877   -0.194246
H     2.160693   -1.483484    0.030725    0.033873   -0.109310   -1.279665
H    -0.095184   -1.959293    1.035889    0.255297    0.533450    0.451322
H    -1.905508    1.305765   -0.230685    0.014266   -0.042927   -0.502928
H     2.336794    1.045839    0.032721   -0.015962    0.049772    0.576996
H    -0.112530   -2.213571   -0.582303   -0.281017   -0.446604    0.523069
13
* Frequency(8)  309.7634
C     1.369781    0.539299    0.095884   -0.014011    0.043948    0.515968
C     1.305586   -0.803349   -0.011650    0.013312   -0.042515   -0.499830
N    -0.009053   -1.461521    0.134456   -0.001919    0.006975    0.072703
C    -1.330617   -0.610646    0.008192   -0.000289    0.000060    0.000221
N    -1.080071    0.707418   -0.123993    0.002948   -0.010414   -0.123709
C     0.170994    1.403774   -0.064445   -0.007440    0.022783    0.268580
O    -2.344447   -1.219182    0.039552   -0.000953    0.002647    0.039555
O     0.203125    2.586067   -0.265023    0.005973   -0.016877   -0.194246
H     2.164125   -1.494561   -0.098943    0.033873   -0.109310   -1.279665
H    -0.069315   -1.905239    1.081621    0.255297    0.533450    0.451322
H    -1.904062    1.301415   -0.281646    0.014266   -0.042927   -0.502928
H     2.335176    1.050882    0.091188   -0.015962    0.049772    0.576996
H    -0.141005   -2.258826   -0.529301   -0.281017   -0.446604    0.523069
13
* Frequency(8)  309.7634
C     1.368687    0.542728    0.136147   -0.014011    0.043948    0.515968
C     1.306624   -0.806667   -0.050654    0.013312   -0.042515   -0.499830
N    -0.009202   -1.460977    0.140130   -0.001919    0.006975    0.072703
C    -1.330640   -0.610642    0.008209   -0.000289    0.000060    0.000221
N    -1.079841    0.706606   -0.133646    0.002948   -0.010414   -0.123709
C     0.170413    1.405551   -0.043487   -0.007440    0.022783    0.268580
O    -2.344521   -1.218975    0.042639   -0.000953    0.002647    0.039555
O     0.203591    2.584750   -0.280180    0.005973   -0.016877   -0.194246
H     2.166769   -1.503091   -0.198801    0.033873   -0.109310   -1.279665
H    -0.049394   -1.863611    1.116839    0.255297    0.533450    0.451322
H    -1.902949    1.298066   -0.320892    0.014266   -0.042927   -0.502928
H     2.333931    1.054766    0.136213   -0.015962    0.049772    0.576996
H    -0.162934   -2.293676   -0.488484   -0.281017   -0.446604    0.523069
13
* Frequency(8)  309.7634
C     1.368039    0.544762    0.160027   -0.014011    0.043948    0.515968
C     1.307240   -0.808634   -0.073787    0.013312   -0.042515   -0.499830
N    -0.009291   -1.460654    0.143495   -0.001919    0.006975    0.072703
C    -1.330653   -0.610639    0.008219   -0.000289    0.000060    0.000221
N    -1.079705    0.706124   -0.139372    0.002948   -0.010414   -0.123709
C     0.170069    1.406606   -0.031056   -0.007440    0.022783    0.268580
O    -2.344565   -1.218853    0.044469   -0.000953    0.002647    0.039555
O     0.203868    2.583969   -0.289170    0.005973   -0.016877   -0.194246
H     2.168336   -1.508150   -0.258026    0.033873   -0.109310   -1.279665
H    -0.037578   -1.838922    1.137727    0.255297    0.533450    0.451322
H    -1.902289    1.296079   -0.344168    0.014266   -0.042927   -0.502928
H     2.333192    1.057070    0.162918   -0.015962    0.049772    0.576996
H    -0.175940   -2.314345   -0.464275   -0.281017   -0.446604    0.523069
13
* Frequency(8)  309.7634
C     1.367906    0.545180    0.164936   -0.014011    0.043948    0.515968
C     1.307367   -0.809039   -0.078543    0.013312   -0.042515   -0.499830
N    -0.009310   -1.460587    0.144186   -0.001919    0.006975    0.072703
C    -1.330656   -0.610638    0.008221   -0.000289    0.000060    0.000221
N    -1.079677    0.706025   -0.140549    0.002948   -0.010414   -0.123709
C     0.169998    1.406823   -0.028501   -0.007440    0.022783    0.268580
O    -2.344574   -1.218828    0.044846   -0.000953    0.002647    0.039555
O     0.203925    2.583808   -0.291019    0.005973   -0.016877   -0.194246
H     2.168659   -1.509190   -0.270201    0.033873   -0.109310   -1.279665
H    -0.035149   -1.833847    1.142021    0.255297    0.533450    0.451322
H    -1.902153    1.295670   -0.348953    0.014266   -0.042927   -0.502928
H     2.333040    1.057543    0.168408   -0.015962    0.049772    0.576996
H    -0.178614   -2.318595   -0.459298   -0.281017   -0.446604    0.523069
13
* Frequency(8)  309.7634
C     1.368302    0.543937    0.150342   -0.014011    0.043948    0.515968
C     1.306991   -0.807836   -0.064406    0.013312   -0.042515   -0.499830
N    -0.009255   -1.460785    0.142130   -0.001919    0.006975    0.072703
C    -1.330648   -0.610640    0.008215   -0.000289    0.000060    0.000221
N    -1.079760    0.706319   -0.137050    0.002948   -0.010414   -0.123709
C     0.170209    1.406178   -0.036097   -0.007440    0.022783    0.268580
O    -2.344547   -1.218902    0.043727   -0.000953    0.002647    0.039555
O     0.203756    2.584286   -0.285525    0.005973   -0.016877   -0.194246
H     2.167701   -1.506098   -0.234007    0.033873   -0.109310   -1.279665
H    -0.042370   -1.848935    1.129256    0.255297    0.533450    0.451322
H    -1.902556    1.296884   -0.334729    0.014266   -0.042927   -0.502928
H     2.333491    1.056136    0.152088   -0.015962    0.049772    0.576996
H    -0.170665   -2.305963   -0.474093   -0.281017   -0.446604    0.523069
13
* Frequency(8)  309.7634
C     1.369185    0.541168    0.117827   -0.014011    0.043948    0.515968
C     1.306152   -0.805157   -0.032908    0.013312   -0.042515   -0.499830
N    -0.009134   -1.461224    0.137548   -0.001919    0.006975    0.072703
C    -1.330630   -0.610644    0.008201   -0.000289    0.000060    0.000221
N    -1.079946    0.706975   -0.129254    0.002948   -0.010414   -0.123709
C     0.170678    1.404742   -0.053023   -0.007440    0.022783    0.268580
O    -2.344487   -1.219069    0.041234   -0.000953    0.002647    0.039555
O     0.203379    2.585349   -0.273284    0.005973   -0.016877   -0.194246
H     2.165566   -1.499209   -0.153366    0.033873   -0.109310   -1.279665
H    -0.058458   -1.882552    1.100815    0.255297    0.533450    0.451322
H    -1.903455    1.299590   -0.303035    0.014266   -0.042927   -0.502928
H     2.334497    1.052999    0.115727   -0.015962    0.049772    0.576996
H    -0.152956   -2.277819   -0.507055   -0.281017   -0.446604    0.523069
13
* Frequency(8)  309.7634
C     1.370459    0.537172    0.070915   -0.014011    0.043948    0.515968
C     1.304941   -0.801292    0.012538    0.013312   -0.042515   -0.499830
N    -0.008960   -1.461858    0.130938   -0.001919    0.006975    0.072703
C    -1.330604   -0.610649    0.008181   -0.000289    0.000060    0.000221
N    -1.080214    0.707922   -0.118006    0.002948   -0.010414   -0.123709
C     0.171354    1.402671   -0.077442   -0.007440    0.022783    0.268580
O    -2.344401   -1.219310    0.037638   -0.000953    0.002647    0.039555
O     0.202836    2.586884   -0.255623    0.005973   -0.016877   -0.194246
H     2.162486   -1.489271   -0.037017    0.033873   -0.109310   -1.279665
H    -0.081670   -1.931054    1.059780    0.255297    0.533450    0.451322
H    -1.904752    1.303493   -0.257308    0.014266   -0.042927   -0.502928
H     2.335949    1.048474    0.063266   -0.015962    0.049772    0.576996
H    -0.127406   -2.237213   -0.554613   -0.281017   -0.446604    0.523069
13
* Frequency(8)  309.7634
C     1.371986    0.532383    0.014688   -0.014011    0.043948    0.515968
C     1.303491   -0.796659    0.067006    0.013312   -0.042515   -0.499830
N    -0.008751   -1.462619    0.123015   -0.001919    0.006975    0.072703
C    -1.330572   -0.610656    0.008157   -0.000289    0.000060    0.000221
N    -1.080535    0.709057   -0.104525    0.002948   -0.010414   -0.123709
C     0.172165    1.400188   -0.106710   -0.007440    0.022783    0.268580
O    -2.344297   -1.219598    0.033327   -0.000953    0.002647    0.039555
O     0.202185    2.588723   -0.234455    0.005973   -0.016877   -0.194246
H     2.158795   -1.477359    0.102433    0.033873   -0.109310   -1.279665
H    -0.109490   -1.989186    1.010598    0.255297    0.533450    0.451322
H    -1.906307    1.308171   -0.202502    0.014266   -0.042927   -0.502928
H     2.337688    1.043050    0.000388   -0.015962    0.049772    0.576996
H    -0.096782   -2.188545   -0.611614   -0.281017   -0.446604    0.523069
13
* Frequency(8)  309.7634
C     1.373600    0.527319   -0.044760   -0.014011    0.043948    0.515968
C     1.301957   -0.791760    0.124594    0.013312   -0.042515   -0.499830
N    -0.008530   -1.463422    0.114639   -0.001919    0.006975    0.072703
C    -1.330539   -0.610663    0.008132   -0.000289    0.000060    0.000221
N    -1.080875    0.710257   -0.090272    0.002948   -0.010414   -0.123709
C     0.173022    1.397563   -0.137655   -0.007440    0.022783    0.268580
O    -2.344187   -1.219903    0.028770   -0.000953    0.002647    0.039555
O     0.201497    2.590668   -0.212075    0.005973   -0.016877   -0.194246
H     2.154892   -1.464765    0.249871    0.033873   -0.109310   -1.279665
H    -0.138905   -2.050648    0.958598    0.255297    0.533450    0.451322
H    -1.907951    1.313117   -0.144557    0.014266   -0.042927   -0.502928
H     2.339527    1.037315   -0.066091   -0.015962    0.049772    0.576996
H    -0.064405   -2.137089   -0.671880   -0.281017   -0.446604    0.523069
13
* Frequency(8)  309.7634
C     1.375127    0.522530   -0.100987   -0.014011    0.043948    0.515968
C     1.300506   -0.787127    0.179063    0.013312   -0.042515   -0.499830
N    -0.008320   -1.464182    0.106716   -0.001919    0.006975    0.072703
C    -1.330507   -0.610669    0.008108   -0.000289    0.000060    0.000221
N    -1.081196    0.711392   -0.076791    0.002948   -0.010414   -0.123709
C     0.173833    1.395081   -0.166923   -0.007440    0.022783    0.268580
O    -2.344083   -1.220192    0.024460   -0.000953    0.002647    0.039555
O     0.200846    2.592507   -0.190907    0.005973   -0.016877   -0.194246
H     2.151201   -1.452853    0.389320    0.033873   -0.109310   -1.279665
H    -0.166725   -2.108780    0.909416    0.255297    0.533450    0.451322
H    -1.909505    1.317795   -0.089751    0.014266   -0.042927   -0.502928
H     2.341266    1.031892   -0.128968   -0.015962    0.049772    0.576996
H    -0.033781   -2.088421   -0.728881   -0.281017   -0.446604    0.523069
13
* Frequency(8)  309.7634
C     1.376401    0.518534   -0.147900   -0.014011    0.043948    0.515968
C     1.299296   -0.783262    0.224508    0.013312   -0.042515   -0.499830
N    -0.008146   -1.464816    0.100106   -0.001919    0.006975    0.072703
C    -1.330481   -0.610675    0.008088   -0.000289    0.000060    0.000221
N    -1.081464    0.712339   -0.065543    0.002948   -0.010414   -0.123709
C     0.174509    1.393009   -0.191343   -0.007440    0.022783    0.268580
O    -2.343996   -1.220432    0.020863   -0.000953    0.002647    0.039555
O     0.200303    2.594041   -0.173246    0.005973   -0.016877   -0.194246
H     2.148121   -1.442914    0.505670    0.033873   -0.109310   -1.279665
H    -0.189937   -2.157282    0.868381    0.255297    0.533450    0.451322
H    -1.910802    1.321698   -0.044024    0.014266   -0.042927   -0.502928
H     2.342718    1.027366   -0.181430   -0.015962    0.049772    0.576996
H    -0.008231   -2.047815   -0.776439   -0.281017   -0.446604    0.523069
13
* Frequency(8)  309.7634
C     1.377284    0.515765   -0.180415   -0.014011    0.043948    0.515968
C     1.298457   -0.780583    0.256006    0.013312   -0.042515   -0.499830
N    -0.008025   -1.465256    0.095524   -0.001919    0.006975    0.072703
C    -1.330463   -0.610678    0.008074   -0.000289    0.000060    0.000221
N    -1.081650    0.712995   -0.057748    0.002948   -0.010414   -0.123709
C     0.174978    1.391573   -0.208268   -0.007440    0.022783    0.268580
O    -2.343936   -1.220599    0.018371   -0.000953    0.002647    0.039555
O     0.199927    2.595105   -0.161005    0.005973   -0.016877   -0.194246
H     2.145987   -1.436025    0.586311    0.033873   -0.109310   -1.279665
H    -0.206025   -2.190898    0.839940    0.255297    0.533450    0.451322
H    -1.911701    1.324403   -0.012331    0.014266   -0.042927   -0.502928
H     2.343724    1.024230   -0.217791   -0.015962    0.049772    0.576996
H     0.009478   -2.019671   -0.809402   -0.281017   -0.446604    0.523069
13
* Frequency(8)  309.7634
C     1.377680    0.514522   -0.195008   -0.014011    0.043948    0.515968
C     1.298081   -0.779380    0.270143    0.013312   -0.042515   -0.499830
N    -0.007971   -1.465453    0.093468   -0.001919    0.006975    0.072703
C    -1.330455   -0.610680    0.008067   -0.000289    0.000060    0.000221
N    -1.081733    0.713289   -0.054249    0.002948   -0.010414   -0.123709
C     0.175188    1.390929   -0.215865   -0.007440    0.022783    0.268580
O    -2.343909   -1.220674    0.017252   -0.000953    0.002647    0.039555
O     0.199758    2.595582   -0.155511    0.005973   -0.016877   -0.194246
H     2.145029   -1.432934    0.622505    0.033873   -0.109310   -1.279665
H    -0.213246   -2.205987    0.827175    0.255297    0.533450    0.451322
H    -1.912105    1.325617    0.001894    0.014266   -0.042927   -0.502928
H     2.344175    1.022822   -0.234110   -0.015962    0.049772    0.576996
H     0.017426   -2.007039   -0.824196   -0.281017   -0.446604    0.523069
13
* Frequency(8)  309.7634
C     1.377547    0.514940   -0.190099   -0.014011    0.043948    0.515968
C     1.298207   -0.779785    0.265388    0.013312   -0.042515   -0.499830
N    -0.007989   -1.465387    0.094160   -0.001919    0.006975    0.072703
C    -1.330458   -0.610680    0.008070   -0.000289    0.000060    0.000221
N    -1.081705    0.713190   -0.055426    0.002948   -0.010414   -0.123709
C     0.175118    1.391146   -0.213309   -0.007440    0.022783    0.268580
O    -2.343919   -1.220649    0.017628   -0.000953    0.002647    0.039555
O     0.199815    2.595422   -0.157359    0.005973   -0.016877   -0.194246
H     2.145351   -1.433974    0.610329    0.033873   -0.109310   -1.279665
H    -0.210817   -2.200911    0.831469    0.255297    0.533450    0.451322
H    -1.911969    1.325208   -0.002891    0.014266   -0.042927   -0.502928
H     2.344023    1.023296   -0.228621   -0.015962    0.049772    0.576996
H     0.014753   -2.011289   -0.819220   -0.281017   -0.446604    0.523069
13
* Frequency(8)  309.7634
C     1.376898    0.516974   -0.166219   -0.014011    0.043948    0.515968
C     1.298824   -0.781752    0.242255    0.013312   -0.042515   -0.499830
N    -0.008078   -1.465064    0.097525   -0.001919    0.006975    0.072703
C    -1.330471   -0.610677    0.008080   -0.000289    0.000060    0.000221
N    -1.081569    0.712708   -0.061151    0.002948   -0.010414   -0.123709
C     0.174773    1.392200   -0.200879   -0.007440    0.022783    0.268580
O    -2.343963   -1.220526    0.019459   -0.000953    0.002647    0.039555
O     0.200091    2.594640   -0.166349    0.005973   -0.016877   -0.194246
H     2.146918   -1.439033    0.551104    0.033873   -0.109310   -1.279665
H    -0.199002   -2.176222    0.852357    0.255297    0.533450    0.451322
H    -1.911309    1.323222   -0.026168    0.014266   -0.042927   -0.502928
H     2.343285    1.025599   -0.201916   -0.015962    0.049772    0.576996
H     0.001747   -2.031958   -0.795011   -0.281017   -0.446604    0.523069
13
* Frequency(8)  309.7634
C     1.375805    0.520403   -0.125956   -0.014011    0.043948    0.515968
C     1.299862   -0.785070    0.203251    0.013312   -0.042515   -0.499830
N    -0.008227   -1.464520    0.103198   -0.001919    0.006975    0.072703
C    -1.330493   -0.610672    0.008097   -0.000289    0.000060    0.000221
N    -1.081339    0.711896   -0.070804    0.002948   -0.010414   -0.123709
C     0.174193    1.393978   -0.179921   -0.007440    0.022783    0.268580
O    -2.344037   -1.220320    0.022546   -0.000953    0.002647    0.039555
O     0.200557    2.593323   -0.181507    0.005973   -0.016877   -0.194246
H     2.149562   -1.447563    0.451247    0.033873   -0.109310   -1.279665
H    -0.179080   -2.134595    0.887576    0.255297    0.533450    0.451322
H    -1.910196    1.319872   -0.065413    0.014266   -0.042927   -0.502928
H     2.342039    1.029483   -0.156891   -0.015962    0.049772    0.576996
H    -0.020182   -2.066809   -0.754194   -0.281017   -0.446604    0.523069
13
* Frequency(8)  309.7634
C     1.374385    0.524857   -0.073673   -0.014011    0.043948    0.515968
C     1.301211   -0.789378    0.152603    0.013312   -0.042515   -0.499830
N    -0.008422   -1.463813    0.110565   -0.001919    0.006975    0.072703
C    -1.330523   -0.610666    0.008119   -0.000289    0.000060    0.000221
N    -1.081040    0.710840   -0.083340    0.002948   -0.010414   -0.123709
C     0.173439    1.396287   -0.152705   -0.007440    0.022783    0.268580
O    -2.344134   -1.220052    0.026554   -0.000953    0.002647    0.039555
O     0.201162    2.591613   -0.201190    0.005973   -0.016877   -0.194246
H     2.152994   -1.458639    0.321579    0.033873   -0.109310   -1.279665
H    -0.153211   -2.080541    0.933308    0.255297    0.533450    0.451322
H    -1.908750    1.315522   -0.116375    0.014266   -0.042927   -0.502928
H     2.340422    1.034526   -0.098424   -0.015962    0.049772    0.576996
H    -0.048657   -2.112063   -0.701191   -0.281017   -0.446604    0.523069
13
* Frequency(8)  309.7634
C     1.372793    0.529851   -0.015036   -0.014011    0.043948    0.515968
C     1.302724   -0.794210    0.095800    0.013312   -0.042515   -0.499830
N    -0.008640   -1.463020    0.118827   -0.001919    0.006975    0.072703
C    -1.330555   -0.610659    0.008144   -0.000289    0.000060    0.000221
N    -1.080705    0.709657   -0.097399    0.002948   -0.010414   -0.123709
C     0.172593    1.398876   -0.122183   -0.007440    0.022783    0.268580
O    -2.344242   -1.219751    0.031049   -0.000953    0.002647    0.039555
O     0.201841    2.589695   -0.223265    0.005973   -0.016877   -0.194246
H     2.156844   -1.471062    0.176152    0.033873   -0.109310   -1.279665
H    -0.124198   -2.019917    0.984598    0.255297    0.533450    0.451322
H    -1.907129    1.310644   -0.173530    0.014266   -0.042927   -0.502928
H     2.338608    1.040183   -0.032851   -0.015962    0.049772    0.576996
H    -0.080594   -2.162817   -0.641747   -0.281017   -0.446604    0.523069
