13
* (null), Energy   -1000.0000000
C     1.372793    0.529851   -0.015036    0.460980    0.163811   -0.001794
C     1.302724   -0.794210    0.095800    0.577385    0.214850   -0.001536
N    -0.008640   -1.463020    0.118827    0.300508    0.485960   -0.033902
C    -1.330555   -0.610659    0.008144   -0.648069    0.147962   -0.033451
N    -1.080705    0.709657   -0.097399   -0.289691   -0.033448   -0.003715
C     0.172593    1.398876   -0.122183    0.068755   -0.475597    0.042338
O    -2.344242   -1.219751    0.031049   -0.507042   -0.060204   -0.008234
O     0.201841    2.589695   -0.223265    0.056829   -0.511206    0.045254
H     2.156844   -1.471062    0.176152    0.443922    0.033604    0.012067
H    -0.124198   -2.019917    0.984598    0.407292    0.464626   -0.051010
H    -1.907129    1.310644   -0.173530    0.095467    0.499578   -0.034950
H     2.338608    1.040183   -0.032851    0.168738    0.714132   -0.055653
H    -0.080594   -2.162817   -0.641747    0.410161    0.461452   -0.001536
13
* Frequency(10)  451.2134
C     1.425181    0.548467   -0.015240    0.460980    0.163811   -0.001794
C     1.368341   -0.769793    0.095626    0.577385    0.214850   -0.001536
N     0.025511   -1.407793    0.114974    0.300508    0.485960   -0.033902
C    -1.404205   -0.593844    0.004343   -0.648069    0.147962   -0.033451
N    -1.113627    0.705856   -0.097821   -0.289691   -0.033448   -0.003715
C     0.180407    1.344827   -0.117371    0.068755   -0.475597    0.042338
O    -2.401865   -1.226593    0.030113   -0.507042   -0.060204   -0.008234
O     0.208300    2.531599   -0.218122    0.056829   -0.511206    0.045254
H     2.207293   -1.467243    0.177523    0.443922    0.033604    0.012067
H    -0.077911   -1.967114    0.978801    0.407292    0.464626   -0.051010
H    -1.896279    1.367418   -0.177502    0.095467    0.499578   -0.034950
H     2.357784    1.121340   -0.039176    0.168738    0.714132   -0.055653
H    -0.033981   -2.110375   -0.641922    0.410161    0.461452   -0.001536
13
* Frequency(10)  451.2134
C     1.471892    0.565066   -0.015422    0.460980    0.163811   -0.001794
C     1.426847   -0.748022    0.095470    0.577385    0.214850   -0.001536
N     0.055961   -1.358551    0.111539    0.300508    0.485960   -0.033902
C    -1.469874   -0.578851    0.000953   -0.648069    0.147962   -0.033451
N    -1.142981    0.702466   -0.098197   -0.289691   -0.033448   -0.003715
C     0.187374    1.296634   -0.113081    0.068755   -0.475597    0.042338
O    -2.453243   -1.232693    0.029279   -0.507042   -0.060204   -0.008234
O     0.214058    2.479799   -0.213536    0.056829   -0.511206    0.045254
H     2.252275   -1.463838    0.178746    0.443922    0.033604    0.012067
H    -0.036640   -1.920034    0.973632    0.407292    0.464626   -0.051010
H    -1.886606    1.418040   -0.181043    0.095467    0.499578   -0.034950
H     2.374882    1.193703   -0.044815    0.168738    0.714132   -0.055653
H     0.007581   -2.063617   -0.642077    0.410161    0.461452   -0.001536
13
* Frequency(10)  451.2134
C     1.507864    0.577849   -0.015562    0.460980    0.163811   -0.001794
C     1.471903   -0.731257    0.095350    0.577385    0.214850   -0.001536
N     0.079411   -1.320630    0.108894    0.300508    0.485960   -0.033902
C    -1.520445   -0.567305   -0.001657   -0.648069    0.147962   -0.033451
N    -1.165587    0.699856   -0.098487   -0.289691   -0.033448   -0.003715
C     0.192739    1.259522   -0.109777    0.068755   -0.475597    0.042338
O    -2.492809   -1.237391    0.028636   -0.507042   -0.060204   -0.008234
O     0.218493    2.439908   -0.210005    0.056829   -0.511206    0.045254
H     2.286916   -1.461216    0.179687    0.443922    0.033604    0.012067
H    -0.004858   -1.883777    0.969652    0.407292    0.464626   -0.051010
H    -1.879156    1.457024   -0.183771    0.095467    0.499578   -0.034950
H     2.388049    1.249429   -0.049158    0.168738    0.714132   -0.055653
H     0.039587   -2.027608   -0.642197    0.410161    0.461452   -0.001536
13
* Frequency(10)  451.2134
C     1.529199    0.585431   -0.015645    0.460980    0.163811   -0.001794
C     1.498625   -0.721313    0.095279    0.577385    0.214850   -0.001536
N     0.093319   -1.298139    0.107325    0.300508    0.485960   -0.033902
C    -1.550439   -0.560457   -0.003205   -0.648069    0.147962   -0.033451
N    -1.178994    0.698308   -0.098659   -0.289691   -0.033448   -0.003715
C     0.195921    1.237510   -0.107818    0.068755   -0.475597    0.042338
O    -2.516276   -1.240178    0.028255   -0.507042   -0.060204   -0.008234
O     0.221123    2.416248   -0.207910    0.056829   -0.511206    0.045254
H     2.307462   -1.459660    0.180246    0.443922    0.033604    0.012067
H     0.013992   -1.862274    0.967291    0.407292    0.464626   -0.051010
H    -1.874738    1.480146   -0.185388    0.095467    0.499578   -0.034950
H     2.395859    1.282481   -0.051734    0.168738    0.714132   -0.055653
H     0.058570   -2.006251   -0.642268    0.410161    0.461452   -0.001536
13
* Frequency(10)  451.2134
C     1.533585    0.586989   -0.015662    0.460980    0.163811   -0.001794
C     1.504119   -0.719269    0.095265    0.577385    0.214850   -0.001536
N     0.096178   -1.293515    0.107002    0.300508    0.485960   -0.033902
C    -1.556605   -0.559049   -0.003523   -0.648069    0.147962   -0.033451
N    -1.181751    0.697990   -0.098695   -0.289691   -0.033448   -0.003715
C     0.196575    1.232985   -0.107415    0.068755   -0.475597    0.042338
O    -2.521100   -1.240750    0.028177   -0.507042   -0.060204   -0.008234
O     0.221663    2.411384   -0.207480    0.056829   -0.511206    0.045254
H     2.311686   -1.459341    0.180361    0.443922    0.033604    0.012067
H     0.017868   -1.857853    0.966806    0.407292    0.464626   -0.051010
H    -1.873829    1.484899   -0.185721    0.095467    0.499578   -0.034950
H     2.397464    1.289275   -0.052264    0.168738    0.714132   -0.055653
H     0.062472   -2.001861   -0.642283    0.410161    0.461452   -0.001536
13
* Frequency(10)  451.2134
C     1.520546    0.582356   -0.015611    0.460980    0.163811   -0.001794
C     1.487788   -0.725346    0.095308    0.577385    0.214850   -0.001536
N     0.087679   -1.307260    0.107961    0.300508    0.485960   -0.033902
C    -1.538275   -0.563234   -0.002577   -0.648069    0.147962   -0.033451
N    -1.173557    0.698936   -0.098589   -0.289691   -0.033448   -0.003715
C     0.194631    1.246437   -0.108612    0.068755   -0.475597    0.042338
O    -2.506759   -1.239048    0.028410   -0.507042   -0.060204   -0.008234
O     0.220056    2.425843   -0.208760    0.056829   -0.511206    0.045254
H     2.299130   -1.460291    0.180019    0.443922    0.033604    0.012067
H     0.006348   -1.870994    0.968249    0.407292    0.464626   -0.051010
H    -1.876530    1.470769   -0.184732    0.095467    0.499578   -0.034950
H     2.392691    1.269077   -0.050689    0.168738    0.714132   -0.055653
H     0.050871   -2.014912   -0.642240    0.410161    0.461452   -0.001536
13
* Frequency(10)  451.2134
C     1.491497    0.572033   -0.015498    0.460980    0.163811   -0.001794
C     1.451403   -0.738885    0.095405    0.577385    0.214850   -0.001536
N     0.068742   -1.337884    0.110097    0.300508    0.485960   -0.033902
C    -1.497436   -0.572558   -0.000469   -0.648069    0.147962   -0.033451
N    -1.155301    0.701044   -0.098355   -0.289691   -0.033448   -0.003715
C     0.190298    1.276408   -0.111280    0.068755   -0.475597    0.042338
O    -2.474807   -1.235254    0.028928   -0.507042   -0.060204   -0.008234
O     0.216475    2.458058   -0.211612    0.056829   -0.511206    0.045254
H     2.271155   -1.462409    0.179259    0.443922    0.033604    0.012067
H    -0.019319   -1.900274    0.971463    0.407292    0.464626   -0.051010
H    -1.882546    1.439287   -0.182530    0.095467    0.499578   -0.034950
H     2.382058    1.224074   -0.047182    0.168738    0.714132   -0.055653
H     0.025024   -2.043992   -0.642143    0.410161    0.461452   -0.001536
13
* Frequency(10)  451.2134
C     1.449584    0.557139   -0.015335    0.460980    0.163811   -0.001794
C     1.398906   -0.758419    0.095544    0.577385    0.214850   -0.001536
N     0.041419   -1.382068    0.113180    0.300508    0.485960   -0.033902
C    -1.438512   -0.586011    0.002572   -0.648069    0.147962   -0.033451
N    -1.128962    0.704085   -0.098018   -0.289691   -0.033448   -0.003715
C     0.184047    1.319650   -0.115130    0.068755   -0.475597    0.042338
O    -2.428706   -1.229780    0.029677   -0.507042   -0.060204   -0.008234
O     0.211308    2.504538   -0.215726    0.056829   -0.511206    0.045254
H     2.230793   -1.465464    0.178162    0.443922    0.033604    0.012067
H    -0.056350   -1.942519    0.976101    0.407292    0.464626   -0.051010
H    -1.891226    1.393864   -0.179352    0.095467    0.499578   -0.034950
H     2.366716    1.159144   -0.042122    0.168738    0.714132   -0.055653
H    -0.012268   -2.085948   -0.642003    0.410161    0.461452   -0.001536
13
* Frequency(10)  451.2134
C     1.399349    0.539288   -0.015139    0.460980    0.163811   -0.001794
C     1.335986   -0.781832    0.095712    0.577385    0.214850   -0.001536
N     0.008672   -1.435025    0.116874    0.300508    0.485960   -0.033902
C    -1.367889   -0.602135    0.006217   -0.648069    0.147962   -0.033451
N    -1.097394    0.707730   -0.097613   -0.289691   -0.033448   -0.003715
C     0.176554    1.371478   -0.119744    0.068755   -0.475597    0.042338
O    -2.373452   -1.223219    0.030574   -0.507042   -0.060204   -0.008234
O     0.205115    2.560246   -0.220658    0.056829   -0.511206    0.045254
H     2.182417   -1.469126    0.176847    0.443922    0.033604    0.012067
H    -0.100734   -1.993151    0.981660    0.407292    0.464626   -0.051010
H    -1.901629    1.339423   -0.175543    0.095467    0.499578   -0.034950
H     2.348328    1.081323   -0.036058    0.168738    0.714132   -0.055653
H    -0.056965   -2.136234   -0.641836    0.410161    0.461452   -0.001536
13
* Frequency(10)  451.2134
C     1.346237    0.520414   -0.014933    0.460980    0.163811   -0.001794
C     1.269462   -0.806587    0.095889    0.577385    0.214850   -0.001536
N    -0.025952   -1.491016    0.120780    0.300508    0.485960   -0.033902
C    -1.293221   -0.619183    0.010071   -0.648069    0.147962   -0.033451
N    -1.064016    0.711584   -0.097185   -0.289691   -0.033448   -0.003715
C     0.168633    1.426274   -0.124622    0.068755   -0.475597    0.042338
O    -2.315032   -1.216283    0.031523   -0.507042   -0.060204   -0.008234
O     0.198567    2.619145   -0.225872    0.056829   -0.511206    0.045254
H     2.131270   -1.472998    0.175457    0.443922    0.033604    0.012067
H    -0.147661   -2.046683    0.987537    0.407292    0.464626   -0.051010
H    -1.912629    1.281864   -0.171516    0.095467    0.499578   -0.034950
H     2.328887    0.999043   -0.029645    0.168738    0.714132   -0.055653
H    -0.104222   -2.189400   -0.641659    0.410161    0.461452   -0.001536
13
* Frequency(10)  451.2134
C     1.296002    0.502563   -0.014737    0.460980    0.163811   -0.001794
C     1.206542   -0.830000    0.096056    0.577385    0.214850   -0.001536
N    -0.058699   -1.543972    0.124475    0.300508    0.485960   -0.033902
C    -1.222599   -0.635307    0.013717   -0.648069    0.147962   -0.033451
N    -1.032448    0.715229   -0.096780   -0.289691   -0.033448   -0.003715
C     0.161140    1.478102   -0.129236    0.068755   -0.475597    0.042338
O    -2.259778   -1.209722    0.032420   -0.507042   -0.060204   -0.008234
O     0.192375    2.674853   -0.230803    0.056829   -0.511206    0.045254
H     2.082894   -1.476659    0.174142    0.443922    0.033604    0.012067
H    -0.192045   -2.097315    0.993095    0.407292    0.464626   -0.051010
H    -1.923032    1.227423   -0.167708    0.095467    0.499578   -0.034950
H     2.310499    0.921222   -0.023581    0.168738    0.714132   -0.055653
H    -0.148919   -2.239686   -0.641491    0.410161    0.461452   -0.001536
13
* Frequency(10)  451.2134
C     1.254089    0.487669   -0.014574    0.460980    0.163811   -0.001794
C     1.154045   -0.849534    0.096196    0.577385    0.214850   -0.001536
N    -0.086022   -1.588157    0.127557    0.300508    0.485960   -0.033902
C    -1.163675   -0.648760    0.016758   -0.648069    0.147962   -0.033451
N    -1.006109    0.718270   -0.096442   -0.289691   -0.033448   -0.003715
C     0.154889    1.521344   -0.133085    0.068755   -0.475597    0.042338
O    -2.213677   -1.204248    0.033169   -0.507042   -0.060204   -0.008234
O     0.187208    2.721332   -0.234918    0.056829   -0.511206    0.045254
H     2.042532   -1.479715    0.173045    0.443922    0.033604    0.012067
H    -0.229077   -2.139560    0.997733    0.407292    0.464626   -0.051010
H    -1.931712    1.182000   -0.164530    0.095467    0.499578   -0.034950
H     2.295157    0.856291   -0.018521    0.168738    0.714132   -0.055653
H    -0.186211   -2.281642   -0.641352    0.410161    0.461452   -0.001536
13
* Frequency(10)  451.2134
C     1.225039    0.477346   -0.014461    0.460980    0.163811   -0.001794
C     1.117660   -0.863073    0.096292    0.577385    0.214850   -0.001536
N    -0.104959   -1.618781    0.129693    0.300508    0.485960   -0.033902
C    -1.122836   -0.658084    0.018866   -0.648069    0.147962   -0.033451
N    -0.987853    0.720378   -0.096208   -0.289691   -0.033448   -0.003715
C     0.150556    1.551315   -0.135753    0.068755   -0.475597    0.042338
O    -2.181725   -1.200454    0.033688   -0.507042   -0.060204   -0.008234
O     0.183626    2.753547   -0.237770    0.056829   -0.511206    0.045254
H     2.014558   -1.481832    0.172284    0.443922    0.033604    0.012067
H    -0.254743   -2.168839    1.000948    0.407292    0.464626   -0.051010
H    -1.937728    1.150518   -0.162327    0.095467    0.499578   -0.034950
H     2.284524    0.811289   -0.015013    0.168738    0.714132   -0.055653
H    -0.212059   -2.310722   -0.641255    0.410161    0.461452   -0.001536
13
* Frequency(10)  451.2134
C     1.212001    0.472713   -0.014410    0.460980    0.163811   -0.001794
C     1.101329   -0.869150    0.096336    0.577385    0.214850   -0.001536
N    -0.113459   -1.632526    0.130652    0.300508    0.485960   -0.033902
C    -1.104506   -0.662269    0.019812   -0.648069    0.147962   -0.033451
N    -0.979659    0.721324   -0.096103   -0.289691   -0.033448   -0.003715
C     0.148611    1.564766   -0.136951    0.068755   -0.475597    0.042338
O    -2.167383   -1.198751    0.033921   -0.507042   -0.060204   -0.008234
O     0.182019    2.768006   -0.239050    0.056829   -0.511206    0.045254
H     2.002002   -1.482783    0.171943    0.443922    0.033604    0.012067
H    -0.266263   -2.181980    1.002391    0.407292    0.464626   -0.051010
H    -1.940428    1.136388   -0.161339    0.095467    0.499578   -0.034950
H     2.279751    0.791090   -0.013439    0.168738    0.714132   -0.055653
H    -0.223659   -2.323774   -0.641211    0.410161    0.461452   -0.001536
13
* Frequency(10)  451.2134
C     1.216387    0.474272   -0.014427    0.460980    0.163811   -0.001794
C     1.106823   -0.867106    0.096321    0.577385    0.214850   -0.001536
N    -0.110599   -1.627902    0.130330    0.300508    0.485960   -0.033902
C    -1.110672   -0.660861    0.019494   -0.648069    0.147962   -0.033451
N    -0.982416    0.721006   -0.096138   -0.289691   -0.033448   -0.003715
C     0.149266    1.560241   -0.136548    0.068755   -0.475597    0.042338
O    -2.172208   -1.199324    0.033842   -0.507042   -0.060204   -0.008234
O     0.182560    2.763142   -0.238619    0.056829   -0.511206    0.045254
H     2.006225   -1.482463    0.172058    0.443922    0.033604    0.012067
H    -0.262388   -2.177560    1.001905    0.407292    0.464626   -0.051010
H    -1.939520    1.141142   -0.161671    0.095467    0.499578   -0.034950
H     2.281356    0.797885   -0.013969    0.168738    0.714132   -0.055653
H    -0.219757   -2.319383   -0.641226    0.410161    0.461452   -0.001536
13
* Frequency(10)  451.2134
C     1.237722    0.481853   -0.014510    0.460980    0.163811   -0.001794
C     1.133545   -0.857162    0.096250    0.577385    0.214850   -0.001536
N    -0.096691   -1.605411    0.128761    0.300508    0.485960   -0.033902
C    -1.140666   -0.654013    0.017946   -0.648069    0.147962   -0.033451
N    -0.995823    0.719458   -0.096310   -0.289691   -0.033448   -0.003715
C     0.152448    1.538230   -0.134588    0.068755   -0.475597    0.042338
O    -2.195674   -1.202111    0.033461   -0.507042   -0.060204   -0.008234
O     0.185190    2.739483   -0.236525    0.056829   -0.511206    0.045254
H     2.026771   -1.480908    0.172616    0.443922    0.033604    0.012067
H    -0.243537   -2.156056    0.999544    0.407292    0.464626   -0.051010
H    -1.935102    1.164263   -0.163289    0.095467    0.499578   -0.034950
H     2.289166    0.830936   -0.016545    0.168738    0.714132   -0.055653
H    -0.200774   -2.298026   -0.641297    0.410161    0.461452   -0.001536
13
* Frequency(10)  451.2134
C     1.273694    0.494636   -0.014650    0.460980    0.163811   -0.001794
C     1.178601   -0.840397    0.096130    0.577385    0.214850   -0.001536
N    -0.073242   -1.567489    0.126115    0.300508    0.485960   -0.033902
C    -1.191237   -0.642467    0.015335   -0.648069    0.147962   -0.033451
N    -1.018429    0.716848   -0.096600   -0.289691   -0.033448   -0.003715
C     0.157813    1.501117   -0.131284    0.068755   -0.475597    0.042338
O    -2.235241   -1.206809    0.032819   -0.507042   -0.060204   -0.008234
O     0.189625    2.699591   -0.232993    0.056829   -0.511206    0.045254
H     2.061412   -1.478286    0.173558    0.443922    0.033604    0.012067
H    -0.211755   -2.119799    0.995564    0.407292    0.464626   -0.051010
H    -1.927652    1.203247   -0.166016    0.095467    0.499578   -0.034950
H     2.302333    0.886663   -0.020887    0.168738    0.714132   -0.055653
H    -0.168768   -2.262017   -0.641417    0.410161    0.461452   -0.001536
13
* Frequency(10)  451.2134
C     1.320405    0.511235   -0.014832    0.460980    0.163811   -0.001794
C     1.237107   -0.818626    0.095975    0.577385    0.214850   -0.001536
N    -0.042791   -1.518247    0.122680    0.300508    0.485960   -0.033902
C    -1.256906   -0.627474    0.011946   -0.648069    0.147962   -0.033451
N    -1.047783    0.713458   -0.096976   -0.289691   -0.033448   -0.003715
C     0.164780    1.452925   -0.126994    0.068755   -0.475597    0.042338
O    -2.286619   -1.212909    0.031984   -0.507042   -0.060204   -0.008234
O     0.195383    2.647791   -0.228408    0.056829   -0.511206    0.045254
H     2.106394   -1.474881    0.174781    0.443922    0.033604    0.012067
H    -0.170484   -2.072719    0.990395    0.407292    0.464626   -0.051010
H    -1.917978    1.253869   -0.169558    0.095467    0.499578   -0.034950
H     2.319431    0.959025   -0.026527    0.168738    0.714132   -0.055653
H    -0.127206   -2.215259   -0.641573    0.410161    0.461452   -0.001536
13
* Frequency(10)  451.2134
C     1.372793    0.529851   -0.015036    0.460980    0.163811   -0.001794
C     1.302724   -0.794210    0.095800    0.577385    0.214850   -0.001536
N    -0.008640   -1.463020    0.118827    0.300508    0.485960   -0.033902
C    -1.330555   -0.610659    0.008144   -0.648069    0.147962   -0.033451
N    -1.080705    0.709657   -0.097399   -0.289691   -0.033448   -0.003715
C     0.172593    1.398876   -0.122183    0.068755   -0.475597    0.042338
O    -2.344242   -1.219751    0.031049   -0.507042   -0.060204   -0.008234
O     0.201841    2.589695   -0.223265    0.056829   -0.511206    0.045254
H     2.156844   -1.471062    0.176152    0.443922    0.033604    0.012067
H    -0.124198   -2.019917    0.984598    0.407292    0.464626   -0.051010
H    -1.907129    1.310644   -0.173530    0.095467    0.499578   -0.034950
H     2.338608    1.040183   -0.032851    0.168738    0.714132   -0.055653
H    -0.080594   -2.162817   -0.641747    0.410161    0.461452   -0.001536
