13
* (null), Energy   -1000.0000000
C     1.372793    0.529851   -0.015036   -0.748714   -0.362766    0.011454
C     1.302724   -0.794210    0.095800   -0.052855   -0.225039    0.015505
N    -0.008640   -1.463020    0.118827    0.377254    0.613374   -0.039241
C    -1.330555   -0.610659    0.008144   -0.152001   -0.013677   -0.005498
N    -1.080705    0.709657   -0.097399    0.499330   -0.232235    0.034803
C     0.172593    1.398876   -0.122183    0.075451    0.054174   -0.003251
O    -2.344242   -1.219751    0.031049   -0.164975   -0.070218    0.001732
O     0.201841    2.589695   -0.223265   -0.011949    0.108866   -0.009502
H     2.156844   -1.471062    0.176152    0.182788    0.066138    0.005782
H    -0.124198   -2.019917    0.984598    0.466625    0.520464   -0.102632
H    -1.907129    1.310644   -0.173530    0.697474    0.006302    0.013878
H     2.338608    1.040183   -0.032851   -0.720041   -0.535738    0.026310
H    -0.080594   -2.162817   -0.641747    0.463809    0.554699    0.024668
13
* Frequency(19)  931.3131
C     1.287705    0.488625   -0.013734   -0.748714   -0.362766    0.011454
C     1.296717   -0.819784    0.097562   -0.052855   -0.225039    0.015505
N     0.034233   -1.393314    0.114368    0.377254    0.613374   -0.039241
C    -1.347830   -0.612214    0.007520   -0.152001   -0.013677   -0.005498
N    -1.023959    0.683265   -0.093443    0.499330   -0.232235    0.034803
C     0.181168    1.405032   -0.122552    0.075451    0.054174   -0.003251
O    -2.362990   -1.227731    0.031246   -0.164975   -0.070218    0.001732
O     0.200483    2.602067   -0.224345   -0.011949    0.108866   -0.009502
H     2.177617   -1.463545    0.176809    0.182788    0.066138    0.005782
H    -0.071168   -1.960769    0.972935    0.466625    0.520464   -0.102632
H    -1.827865    1.311360   -0.171953    0.697474    0.006302    0.013878
H     2.256779    0.979299   -0.029861   -0.720041   -0.535738    0.026310
H    -0.027884   -2.099778   -0.638944    0.463809    0.554699    0.024668
13
* Frequency(19)  931.3131
C     1.211838    0.451866   -0.012574   -0.748714   -0.362766    0.011454
C     1.291361   -0.842587    0.099133   -0.052855   -0.225039    0.015505
N     0.072460   -1.331161    0.110391    0.377254    0.613374   -0.039241
C    -1.363232   -0.613599    0.006963   -0.152001   -0.013677   -0.005498
N    -0.973362    0.659732   -0.089917    0.499330   -0.232235    0.034803
C     0.188813    1.410522   -0.122882    0.075451    0.054174   -0.003251
O    -2.379707   -1.234846    0.031421   -0.164975   -0.070218    0.001732
O     0.199273    2.613099   -0.225307   -0.011949    0.108866   -0.009502
H     2.196138   -1.456844    0.177395    0.182788    0.066138    0.005782
H    -0.023885   -1.908030    0.962535    0.466625    0.520464   -0.102632
H    -1.757190    1.311998   -0.170546    0.697474    0.006302    0.013878
H     2.183817    0.925013   -0.027196   -0.720041   -0.535738    0.026310
H     0.019113   -2.043571   -0.636444    0.463809    0.554699    0.024668
13
* Frequency(19)  931.3131
C     1.153413    0.423558   -0.011680   -0.748714   -0.362766    0.011454
C     1.287237   -0.860148    0.100343   -0.052855   -0.225039    0.015505
N     0.101899   -1.283297    0.107329    0.377254    0.613374   -0.039241
C    -1.375093   -0.614667    0.006534   -0.152001   -0.013677   -0.005498
N    -0.934397    0.641610   -0.087201    0.499330   -0.232235    0.034803
C     0.194701    1.414749   -0.123135    0.075451    0.054174   -0.003251
O    -2.392581   -1.240325    0.031556   -0.164975   -0.070218    0.001732
O     0.198340    2.621594   -0.226049   -0.011949    0.108866   -0.009502
H     2.210402   -1.451683    0.177846    0.182788    0.066138    0.005782
H     0.012528   -1.867416    0.954526    0.466625    0.520464   -0.102632
H    -1.702763    1.312490   -0.169463    0.697474    0.006302    0.013878
H     2.127630    0.883207   -0.025142   -0.720041   -0.535738    0.026310
H     0.055306   -2.000286   -0.634519    0.463809    0.554699    0.024668
13
* Frequency(19)  931.3131
C     1.118761    0.406768   -0.011150   -0.748714   -0.362766    0.011454
C     1.284791   -0.870563    0.101061   -0.052855   -0.225039    0.015505
N     0.119359   -1.254909    0.105513    0.377254    0.613374   -0.039241
C    -1.382128   -0.615300    0.006279   -0.152001   -0.013677   -0.005498
N    -0.911287    0.630862   -0.085590    0.499330   -0.232235    0.034803
C     0.198193    1.417257   -0.123286    0.075451    0.054174   -0.003251
O    -2.400216   -1.243575    0.031636   -0.164975   -0.070218    0.001732
O     0.197787    2.626632   -0.226489   -0.011949    0.108866   -0.009502
H     2.218862   -1.448622    0.178114    0.182788    0.066138    0.005782
H     0.034124   -1.843328    0.949776    0.466625    0.520464   -0.102632
H    -1.670483    1.312782   -0.168821    0.697474    0.006302    0.013878
H     2.094305    0.858412   -0.023925   -0.720041   -0.535738    0.026310
H     0.076772   -1.974613   -0.633378    0.463809    0.554699    0.024668
13
* Frequency(19)  931.3131
C     1.111638    0.403317   -0.011041   -0.748714   -0.362766    0.011454
C     1.284288   -0.872704    0.101208   -0.052855   -0.225039    0.015505
N     0.122948   -1.249073    0.105140    0.377254    0.613374   -0.039241
C    -1.383574   -0.615430    0.006227   -0.152001   -0.013677   -0.005498
N    -0.906536    0.628652   -0.085259    0.499330   -0.232235    0.034803
C     0.198911    1.417772   -0.123317    0.075451    0.054174   -0.003251
O    -2.401786   -1.244243    0.031653   -0.164975   -0.070218    0.001732
O     0.197673    2.627668   -0.226579   -0.011949    0.108866   -0.009502
H     2.220601   -1.447992    0.178169    0.182788    0.066138    0.005782
H     0.038564   -1.838376    0.948800    0.466625    0.520464   -0.102632
H    -1.663847    1.312842   -0.168689    0.697474    0.006302    0.013878
H     2.087454    0.853315   -0.023674   -0.720041   -0.535738    0.026310
H     0.081185   -1.969335   -0.633143    0.463809    0.554699    0.024668
13
* Frequency(19)  931.3131
C     1.132814    0.413577   -0.011365   -0.748714   -0.362766    0.011454
C     1.285783   -0.866339    0.100770   -0.052855   -0.225039    0.015505
N     0.112278   -1.266421    0.106250    0.377254    0.613374   -0.039241
C    -1.379275   -0.615043    0.006382   -0.152001   -0.013677   -0.005498
N    -0.920659    0.635221   -0.086243    0.499330   -0.232235    0.034803
C     0.196777    1.416240   -0.123225    0.075451    0.054174   -0.003251
O    -2.397120   -1.242257    0.031604   -0.164975   -0.070218    0.001732
O     0.198011    2.624589   -0.226310   -0.011949    0.108866   -0.009502
H     2.215431   -1.449863    0.178005    0.182788    0.066138    0.005782
H     0.025366   -1.853097    0.951703    0.466625    0.520464   -0.102632
H    -1.683574    1.312664   -0.169082    0.697474    0.006302    0.013878
H     2.107820    0.868468   -0.024419   -0.720041   -0.535738    0.026310
H     0.068067   -1.985025   -0.633841    0.463809    0.554699    0.024668
13
* Frequency(19)  931.3131
C     1.179996    0.436438   -0.012087   -0.748714   -0.362766    0.011454
C     1.289114   -0.852158    0.099793   -0.052855   -0.225039    0.015505
N     0.088504   -1.305074    0.108723    0.377254    0.613374   -0.039241
C    -1.369696   -0.614181    0.006729   -0.152001   -0.013677   -0.005498
N    -0.952126    0.649856   -0.088437    0.499330   -0.232235    0.034803
C     0.192022    1.412826   -0.123020    0.075451    0.054174   -0.003251
O    -2.386723   -1.237832    0.031495   -0.164975   -0.070218    0.001732
O     0.198764    2.617729   -0.225711   -0.011949    0.108866   -0.009502
H     2.203912   -1.454031    0.177641    0.182788    0.066138    0.005782
H    -0.004040   -1.885895    0.958170    0.466625    0.520464   -0.102632
H    -1.727527    1.312267   -0.169956    0.697474    0.006302    0.013878
H     2.153195    0.902228   -0.026077   -0.720041   -0.535738    0.026310
H     0.038839   -2.019980   -0.635395    0.463809    0.554699    0.024668
13
* Frequency(19)  931.3131
C     1.248071    0.469421   -0.013128   -0.748714   -0.362766    0.011454
C     1.293919   -0.831697    0.098383   -0.052855   -0.225039    0.015505
N     0.054204   -1.360843    0.112290    0.377254    0.613374   -0.039241
C    -1.355876   -0.612938    0.007229   -0.152001   -0.013677   -0.005498
N    -0.997526    0.670971   -0.091601    0.499330   -0.232235    0.034803
C     0.185162    1.407900   -0.122724    0.075451    0.054174   -0.003251
O    -2.371724   -1.231448    0.031337   -0.164975   -0.070218    0.001732
O     0.199851    2.607830   -0.224848   -0.011949    0.108866   -0.009502
H     2.187293   -1.460044    0.177115    0.182788    0.066138    0.005782
H    -0.046466   -1.933217    0.967502    0.466625    0.520464   -0.102632
H    -1.790943    1.311693   -0.171218    0.697474    0.006302    0.013878
H     2.218662    0.950939   -0.028469   -0.720041   -0.535738    0.026310
H    -0.003332   -2.070414   -0.637638    0.463809    0.554699    0.024668
13
* Frequency(19)  931.3131
C     1.329661    0.508953   -0.014376   -0.748714   -0.362766    0.011454
C     1.299679   -0.807174    0.096693   -0.052855   -0.225039    0.015505
N     0.013093   -1.427685    0.116567    0.377254    0.613374   -0.039241
C    -1.339312   -0.611447    0.007828   -0.152001   -0.013677   -0.005498
N    -1.051940    0.696278   -0.095394    0.499330   -0.232235    0.034803
C     0.176940    1.401997   -0.122370    0.075451    0.054174   -0.003251
O    -2.353746   -1.223796    0.031149   -0.164975   -0.070218    0.001732
O     0.201153    2.595967   -0.223812   -0.011949    0.108866   -0.009502
H     2.167374   -1.467252    0.176485    0.182788    0.066138    0.005782
H    -0.097316   -1.989934    0.978686    0.466625    0.520464   -0.102632
H    -1.866949    1.311007   -0.172730    0.697474    0.006302    0.013878
H     2.297127    1.009320   -0.031336   -0.720041   -0.535738    0.026310
H    -0.053874   -2.130862   -0.640326    0.463809    0.554699    0.024668
13
* Frequency(19)  931.3131
C     1.415925    0.550749   -0.015696   -0.748714   -0.362766    0.011454
C     1.305769   -0.781245    0.094907   -0.052855   -0.225039    0.015505
N    -0.030373   -1.498356    0.121088    0.377254    0.613374   -0.039241
C    -1.321799   -0.609871    0.008461   -0.152001   -0.013677   -0.005498
N    -1.109470    0.723036   -0.099404    0.499330   -0.232235    0.034803
C     0.168247    1.395755   -0.121995    0.075451    0.054174   -0.003251
O    -2.334738   -1.215706    0.030949   -0.164975   -0.070218    0.001732
O     0.202530    2.583424   -0.222717   -0.011949    0.108866   -0.009502
H     2.146314   -1.474872    0.175819    0.182788    0.066138    0.005782
H    -0.151079   -2.049900    0.990511    0.466625    0.520464   -0.102632
H    -1.947309    1.310281   -0.174329    0.697474    0.006302    0.013878
H     2.380088    1.071046   -0.034367   -0.720041   -0.535738    0.026310
H    -0.107313   -2.194772   -0.643168    0.463809    0.554699    0.024668
13
* Frequency(19)  931.3131
C     1.497515    0.590281   -0.016944   -0.748714   -0.362766    0.011454
C     1.311529   -0.756722    0.093217   -0.052855   -0.225039    0.015505
N    -0.071484   -1.565197    0.125364    0.377254    0.613374   -0.039241
C    -1.305235   -0.608381    0.009060   -0.152001   -0.013677   -0.005498
N    -1.163884    0.748343   -0.103196    0.499330   -0.232235    0.034803
C     0.160025    1.389851   -0.121641    0.075451    0.054174   -0.003251
O    -2.316760   -1.208054    0.030760   -0.164975   -0.070218    0.001732
O     0.203832    2.571560   -0.221682   -0.011949    0.108866   -0.009502
H     2.126394   -1.482079    0.175189    0.182788    0.066138    0.005782
H    -0.201929   -2.106616    1.001695    0.466625    0.520464   -0.102632
H    -2.023315    1.309594   -0.175842    0.697474    0.006302    0.013878
H     2.458553    1.129427   -0.037234   -0.720041   -0.535738    0.026310
H    -0.157856   -2.255220   -0.645857    0.463809    0.554699    0.024668
13
* Frequency(19)  931.3131
C     1.565589    0.623265   -0.017985   -0.748714   -0.362766    0.011454
C     1.316334   -0.736261    0.091808   -0.052855   -0.225039    0.015505
N    -0.105784   -1.620966    0.128932    0.377254    0.613374   -0.039241
C    -1.291415   -0.607137    0.009560   -0.152001   -0.013677   -0.005498
N    -1.209284    0.769458   -0.106361    0.499330   -0.232235    0.034803
C     0.153164    1.384926   -0.121345    0.075451    0.054174   -0.003251
O    -2.301760   -1.201670    0.030603   -0.164975   -0.070218    0.001732
O     0.204918    2.561662   -0.220818   -0.011949    0.108866   -0.009502
H     2.109775   -1.488093    0.174663    0.182788    0.066138    0.005782
H    -0.244355   -2.153938    1.011026    0.466625    0.520464   -0.102632
H    -2.086731    1.309021   -0.177103    0.697474    0.006302    0.013878
H     2.524020    1.178137   -0.039626   -0.720041   -0.535738    0.026310
H    -0.200026   -2.305654   -0.648099    0.463809    0.554699    0.024668
13
* Frequency(19)  931.3131
C     1.612771    0.646125   -0.018707   -0.748714   -0.362766    0.011454
C     1.319665   -0.722080    0.090831   -0.052855   -0.225039    0.015505
N    -0.129558   -1.659620    0.131405    0.377254    0.613374   -0.039241
C    -1.281836   -0.606275    0.009907   -0.152001   -0.013677   -0.005498
N    -1.240751    0.784093   -0.108554    0.499330   -0.232235    0.034803
C     0.148410    1.381512   -0.121141    0.075451    0.054174   -0.003251
O    -2.291364   -1.197245    0.030494   -0.164975   -0.070218    0.001732
O     0.205671    2.554801   -0.220219   -0.011949    0.108866   -0.009502
H     2.098256   -1.492260    0.174298    0.182788    0.066138    0.005782
H    -0.273761   -2.186736    1.017494    0.466625    0.520464   -0.102632
H    -2.130684    1.308624   -0.177978    0.697474    0.006302    0.013878
H     2.569395    1.211898   -0.041284   -0.720041   -0.535738    0.026310
H    -0.229254   -2.340610   -0.649654    0.463809    0.554699    0.024668
13
* Frequency(19)  931.3131
C     1.633948    0.656386   -0.019031   -0.748714   -0.362766    0.011454
C     1.321160   -0.715715    0.090392   -0.052855   -0.225039    0.015505
N    -0.140228   -1.676968    0.132515    0.377254    0.613374   -0.039241
C    -1.277537   -0.605889    0.010062   -0.152001   -0.013677   -0.005498
N    -1.254874    0.790662   -0.109538    0.499330   -0.232235    0.034803
C     0.146276    1.379980   -0.121049    0.075451    0.054174   -0.003251
O    -2.286698   -1.195259    0.030445   -0.164975   -0.070218    0.001732
O     0.206009    2.551722   -0.219950   -0.011949    0.108866   -0.009502
H     2.093086   -1.494131    0.174135    0.182788    0.066138    0.005782
H    -0.286959   -2.201457    1.020397    0.466625    0.520464   -0.102632
H    -2.150411    1.308445   -0.178370    0.697474    0.006302    0.013878
H     2.589761    1.227051   -0.042028   -0.720041   -0.535738    0.026310
H    -0.242372   -2.356299   -0.650352    0.463809    0.554699    0.024668
13
* Frequency(19)  931.3131
C     1.626824    0.652934   -0.018922   -0.748714   -0.362766    0.011454
C     1.320657   -0.717856    0.090540   -0.052855   -0.225039    0.015505
N    -0.136639   -1.671132    0.132141    0.377254    0.613374   -0.039241
C    -1.278983   -0.606019    0.010010   -0.152001   -0.013677   -0.005498
N    -1.250123    0.788452   -0.109207    0.499330   -0.232235    0.034803
C     0.146994    1.380495   -0.121080    0.075451    0.054174   -0.003251
O    -2.288268   -1.195927    0.030461   -0.164975   -0.070218    0.001732
O     0.205895    2.552758   -0.220041   -0.011949    0.108866   -0.009502
H     2.094825   -1.493502    0.174190    0.182788    0.066138    0.005782
H    -0.282519   -2.196505    1.019420    0.466625    0.520464   -0.102632
H    -2.143775    1.308505   -0.178238    0.697474    0.006302    0.013878
H     2.582910    1.221953   -0.041778   -0.720041   -0.535738    0.026310
H    -0.237959   -2.351021   -0.650117    0.463809    0.554699    0.024668
13
* Frequency(19)  931.3131
C     1.592172    0.636145   -0.018392   -0.748714   -0.362766    0.011454
C     1.318211   -0.728271    0.091257   -0.052855   -0.225039    0.015505
N    -0.119179   -1.642744    0.130325    0.377254    0.613374   -0.039241
C    -1.286018   -0.606652    0.009755   -0.152001   -0.013677   -0.005498
N    -1.227013    0.777704   -0.107596    0.499330   -0.232235    0.034803
C     0.150486    1.383002   -0.121230    0.075451    0.054174   -0.003251
O    -2.295903   -1.199177    0.030541   -0.164975   -0.070218    0.001732
O     0.205342    2.557797   -0.220481   -0.011949    0.108866   -0.009502
H     2.103285   -1.490441    0.174458    0.182788    0.066138    0.005782
H    -0.260923   -2.172417    1.014670    0.466625    0.520464   -0.102632
H    -2.111494    1.308797   -0.177596    0.697474    0.006302    0.013878
H     2.549585    1.197158   -0.040560   -0.720041   -0.535738    0.026310
H    -0.216493   -2.325348   -0.648975    0.463809    0.554699    0.024668
13
* Frequency(19)  931.3131
C     1.533747    0.607837   -0.017498   -0.748714   -0.362766    0.011454
C     1.314086   -0.745832    0.092467   -0.052855   -0.225039    0.015505
N    -0.089740   -1.594880    0.127263    0.377254    0.613374   -0.039241
C    -1.297879   -0.607719    0.009326   -0.152001   -0.013677   -0.005498
N    -1.188048    0.759582   -0.104881    0.499330   -0.232235    0.034803
C     0.156373    1.387230   -0.121484    0.075451    0.054174   -0.003251
O    -2.308776   -1.204656    0.030676   -0.164975   -0.070218    0.001732
O     0.204410    2.566292   -0.221222   -0.011949    0.108866   -0.009502
H     2.117549   -1.485280    0.174909    0.182788    0.066138    0.005782
H    -0.224510   -2.131803    1.006661    0.466625    0.520464   -0.102632
H    -2.057068    1.309289   -0.176513    0.697474    0.006302    0.013878
H     2.493398    1.155353   -0.038507   -0.720041   -0.535738    0.026310
H    -0.180301   -2.282063   -0.647050    0.463809    0.554699    0.024668
13
* Frequency(19)  931.3131
C     1.457880    0.571078   -0.016338   -0.748714   -0.362766    0.011454
C     1.308731   -0.768635    0.094038   -0.052855   -0.225039    0.015505
N    -0.051513   -1.532727    0.123287    0.377254    0.613374   -0.039241
C    -1.313281   -0.609105    0.008769   -0.152001   -0.013677   -0.005498
N    -1.137451    0.736049   -0.101354    0.499330   -0.232235    0.034803
C     0.164019    1.392719   -0.121813    0.075451    0.054174   -0.003251
O    -2.325493   -1.211771    0.030852   -0.164975   -0.070218    0.001732
O     0.203199    2.577323   -0.222185   -0.011949    0.108866   -0.009502
H     2.136071   -1.478578    0.175495    0.182788    0.066138    0.005782
H    -0.177227   -2.079065    0.996262    0.466625    0.520464   -0.102632
H    -1.986393    1.309927   -0.175107    0.697474    0.006302    0.013878
H     2.420436    1.101067   -0.035841   -0.720041   -0.535738    0.026310
H    -0.133303   -2.225856   -0.644551    0.463809    0.554699    0.024668
13
* Frequency(19)  931.3131
C     1.372793    0.529851   -0.015036   -0.748714   -0.362766    0.011454
C     1.302724   -0.794210    0.095800   -0.052855   -0.225039    0.015505
N    -0.008640   -1.463020    0.118827    0.377254    0.613374   -0.039241
C    -1.330555   -0.610659    0.008144   -0.152001   -0.013677   -0.005498
N    -1.080705    0.709657   -0.097399    0.499330   -0.232235    0.034803
C     0.172593    1.398876   -0.122183    0.075451    0.054174   -0.003251
O    -2.344242   -1.219751    0.031049   -0.164975   -0.070218    0.001732
O     0.201841    2.589695   -0.223265   -0.011949    0.108866   -0.009502
H     2.156844   -1.471062    0.176152    0.182788    0.066138    0.005782
H    -0.124198   -2.019917    0.984598    0.466625    0.520464   -0.102632
H    -1.907129    1.310644   -0.173530    0.697474    0.006302    0.013878
H     2.338608    1.040183   -0.032851   -0.720041   -0.535738    0.026310
H    -0.080594   -2.162817   -0.641747    0.463809    0.554699    0.024668
