13
* (null), Energy   -1000.0000000
C     1.628522    0.403282    0.009825   -0.462610   -0.163644    0.000367
C     1.558257   -0.920826    0.121541   -0.577350   -0.214389    0.002667
N     0.246846   -1.589915    0.143551   -0.299237   -0.487538    0.034249
C    -1.074947   -0.737408    0.033678    0.647012   -0.148628    0.031271
N    -0.825093    0.582903   -0.073451    0.288254    0.033905    0.004746
C     0.428005    1.271956   -0.097784   -0.069647    0.476268   -0.042719
O    -2.088804   -1.345922    0.058464    0.506830    0.059436    0.008246
O     0.457572    2.462843   -0.197982   -0.053869    0.512476   -0.044918
H     2.412149   -1.597989    0.202997   -0.442349   -0.031160   -0.009260
H     0.131582   -2.147641    1.008616   -0.407037   -0.463278    0.053240
H    -1.651708    1.183769   -0.147738   -0.097517   -0.500061    0.038107
H     2.594425    0.913409   -0.007422   -0.171116   -0.713320    0.054471
H     0.175864   -2.288698   -0.617572   -0.406635   -0.465487    0.003888
13
* Frequency(10)  451.2715
C     1.575949    0.384684    0.009867   -0.462610   -0.163644    0.000367
C     1.492644   -0.945190    0.121844   -0.577350   -0.214389    0.002667
N     0.212839   -1.645321    0.147443   -0.299237   -0.487538    0.034249
C    -1.001418   -0.754299    0.037232    0.647012   -0.148628    0.031271
N    -0.792334    0.586757   -0.072912    0.288254    0.033905    0.004746
C     0.420090    1.326081   -0.102639   -0.069647    0.476268   -0.042719
O    -2.031206   -1.339167    0.059401    0.506830    0.059436    0.008246
O     0.451450    2.521083   -0.203087   -0.053869    0.512476   -0.044918
H     2.361878   -1.601530    0.201944   -0.442349   -0.031160   -0.009260
H     0.085325   -2.200290    1.014666   -0.407037   -0.463278    0.053240
H    -1.662790    1.126940   -0.143407   -0.097517   -0.500061    0.038107
H     2.574978    0.832344   -0.001232   -0.171116   -0.713320    0.054471
H     0.129652   -2.341599   -0.617130   -0.406635   -0.465487    0.003888
13
* Frequency(10)  451.2715
C     1.529073    0.368102    0.009904   -0.462610   -0.163644    0.000367
C     1.434142   -0.966914    0.122115   -0.577350   -0.214389    0.002667
N     0.182517   -1.694723    0.150914   -0.299237   -0.487538    0.034249
C    -0.935856   -0.769359    0.040400    0.647012   -0.148628    0.031271
N    -0.763126    0.590192   -0.072431    0.288254    0.033905    0.004746
C     0.413033    1.374341   -0.106968   -0.069647    0.476268   -0.042719
O    -1.979849   -1.333144    0.060237    0.506830    0.059436    0.008246
O     0.445992    2.573012   -0.207638   -0.053869    0.512476   -0.044918
H     2.317055   -1.604687    0.201006   -0.442349   -0.031160   -0.009260
H     0.044080   -2.247234    1.020061   -0.407037   -0.463278    0.053240
H    -1.672672    1.076269   -0.139546   -0.097517   -0.500061    0.038107
H     2.557639    0.760064    0.004288   -0.171116   -0.713320    0.054471
H     0.088448   -2.388766   -0.616736   -0.406635   -0.465487    0.003888
13
* Frequency(10)  451.2715
C     1.492974    0.355333    0.009933   -0.462610   -0.163644    0.000367
C     1.389089   -0.983644    0.122323   -0.577350   -0.214389    0.002667
N     0.159167   -1.732767    0.153586   -0.299237   -0.487538    0.034249
C    -0.885368   -0.780957    0.042840    0.647012   -0.148628    0.031271
N    -0.740632    0.592838   -0.072060    0.288254    0.033905    0.004746
C     0.407598    1.411506   -0.110301   -0.069647    0.476268   -0.042719
O    -1.940299   -1.328506    0.060880    0.506830    0.059436    0.008246
O     0.441788    2.613002   -0.211144   -0.053869    0.512476   -0.044918
H     2.282537   -1.607119    0.200283   -0.442349   -0.031160   -0.009260
H     0.012317   -2.283386    1.024215   -0.407037   -0.463278    0.053240
H    -1.680281    1.037247   -0.136572   -0.097517   -0.500061    0.038107
H     2.544286    0.704401    0.008539   -0.171116   -0.713320    0.054471
H     0.056717   -2.425090   -0.616433   -0.406635   -0.465487    0.003888
13
* Frequency(10)  451.2715
C     1.471563    0.347759    0.009950   -0.462610   -0.163644    0.000367
C     1.362368   -0.993566    0.122446   -0.577350   -0.214389    0.002667
N     0.145317   -1.755331    0.155171   -0.299237   -0.487538    0.034249
C    -0.855423   -0.787836    0.044288    0.647012   -0.148628    0.031271
N    -0.727291    0.594407   -0.071841    0.288254    0.033905    0.004746
C     0.404374    1.433549   -0.112278   -0.069647    0.476268   -0.042719
O    -1.916842   -1.325756    0.061262    0.506830    0.059436    0.008246
O     0.439295    2.636721   -0.213222   -0.053869    0.512476   -0.044918
H     2.262064   -1.608561    0.199855   -0.442349   -0.031160   -0.009260
H    -0.006521   -2.304827    1.026679   -0.407037   -0.463278    0.053240
H    -1.684794    1.014104   -0.134809   -0.097517   -0.500061    0.038107
H     2.536367    0.671387    0.011060   -0.171116   -0.713320    0.054471
H     0.037897   -2.446634   -0.616253   -0.406635   -0.465487    0.003888
13
* Frequency(10)  451.2715
C     1.467162    0.346202    0.009953   -0.462610   -0.163644    0.000367
C     1.356875   -0.995606    0.122472   -0.577350   -0.214389    0.002667
N     0.142470   -1.759970    0.155497   -0.299237   -0.487538    0.034249
C    -0.849267   -0.789250    0.044585    0.647012   -0.148628    0.031271
N    -0.724549    0.594730   -0.071796    0.288254    0.033905    0.004746
C     0.403712    1.438080   -0.112685   -0.069647    0.476268   -0.042719
O    -1.912020   -1.325190    0.061341    0.506830    0.059436    0.008246
O     0.438782    2.641597   -0.213650   -0.053869    0.512476   -0.044918
H     2.257855   -1.608858    0.199767   -0.442349   -0.031160   -0.009260
H    -0.010394   -2.309235    1.027186   -0.407037   -0.463278    0.053240
H    -1.685722    1.009346   -0.134446   -0.097517   -0.500061    0.038107
H     2.534739    0.664600    0.011578   -0.171116   -0.713320    0.054471
H     0.034028   -2.451062   -0.616216   -0.406635   -0.465487    0.003888
13
* Frequency(10)  451.2715
C     1.480246    0.350830    0.009943   -0.462610   -0.163644    0.000367
C     1.373205   -0.989542    0.122396   -0.577350   -0.214389    0.002667
N     0.150934   -1.746181    0.154529   -0.299237   -0.487538    0.034249
C    -0.867567   -0.785046    0.043701    0.647012   -0.148628    0.031271
N    -0.732702    0.593771   -0.071930    0.288254    0.033905    0.004746
C     0.405682    1.424610   -0.111476   -0.069647    0.476268   -0.042719
O    -1.926355   -1.326871    0.061107    0.506830    0.059436    0.008246
O     0.440306    2.627102   -0.212379   -0.053869    0.512476   -0.044918
H     2.270367   -1.607976    0.200029   -0.442349   -0.031160   -0.009260
H     0.001118   -2.296131    1.025680   -0.407037   -0.463278    0.053240
H    -1.682964    1.023490   -0.135524   -0.097517   -0.500061    0.038107
H     2.539579    0.684775    0.010037   -0.171116   -0.713320    0.054471
H     0.045529   -2.437897   -0.616326   -0.406635   -0.465487    0.003888
13
* Frequency(10)  451.2715
C     1.509399    0.361143    0.009920   -0.462610   -0.163644    0.000367
C     1.409588   -0.976032    0.122228   -0.577350   -0.214389    0.002667
N     0.169791   -1.715457    0.152370   -0.299237   -0.487538    0.034249
C    -0.908340   -0.775680    0.041730    0.647012   -0.148628    0.031271
N    -0.750867    0.591634   -0.072229    0.288254    0.033905    0.004746
C     0.410071    1.394596   -0.108784   -0.069647    0.476268   -0.042719
O    -1.958294   -1.330617    0.060588    0.506830    0.059436    0.008246
O     0.443701    2.594807   -0.209549   -0.053869    0.512476   -0.044918
H     2.298242   -1.606013    0.200612   -0.442349   -0.031160   -0.009260
H     0.026769   -2.266937    1.022325   -0.407037   -0.463278    0.053240
H    -1.676819    1.055002   -0.137925   -0.097517   -0.500061    0.038107
H     2.550362    0.729727    0.006605   -0.171116   -0.713320    0.054471
H     0.071154   -2.408563   -0.616571   -0.406635   -0.465487    0.003888
13
* Frequency(10)  451.2715
C     1.551460    0.376022    0.009886   -0.462610   -0.163644    0.000367
C     1.462081   -0.956539    0.121986   -0.577350   -0.214389    0.002667
N     0.196998   -1.671129    0.149256   -0.299237   -0.487538    0.034249
C    -0.967167   -0.762167    0.038887    0.647012   -0.148628    0.031271
N    -0.777075    0.588551   -0.072660    0.288254    0.033905    0.004746
C     0.416403    1.351293   -0.104900   -0.069647    0.476268   -0.042719
O    -2.004376   -1.336021    0.059838    0.506830    0.059436    0.008246
O     0.448599    2.548212   -0.205465   -0.053869    0.512476   -0.044918
H     2.338461   -1.603180    0.201454   -0.442349   -0.031160   -0.009260
H     0.063777   -2.224815    1.017484   -0.407037   -0.463278    0.053240
H    -1.667952    1.100468   -0.141390   -0.097517   -0.500061    0.038107
H     2.565920    0.794583    0.001652   -0.171116   -0.713320    0.054471
H     0.108126   -2.366240   -0.616925   -0.406635   -0.465487    0.003888
13
* Frequency(10)  451.2715
C     1.601872    0.393854    0.009846   -0.462610   -0.163644    0.000367
C     1.524997   -0.933176    0.121695   -0.577350   -0.214389    0.002667
N     0.229607   -1.618001    0.145524   -0.299237   -0.487538    0.034249
C    -1.037674   -0.745970    0.035479    0.647012   -0.148628    0.031271
N    -0.808487    0.584857   -0.073178    0.288254    0.033905    0.004746
C     0.423993    1.299393   -0.100245   -0.069647    0.476268   -0.042719
O    -2.059607   -1.342498    0.058939    0.506830    0.059436    0.008246
O     0.454469    2.492365   -0.200570   -0.053869    0.512476   -0.044918
H     2.386666   -1.599784    0.202463   -0.442349   -0.031160   -0.009260
H     0.108134   -2.174330    1.011683   -0.407037   -0.463278    0.053240
H    -1.657326    1.154962   -0.145543   -0.097517   -0.500061    0.038107
H     2.584567    0.872316   -0.004284   -0.171116   -0.713320    0.054471
H     0.152439   -2.315514   -0.617348   -0.406635   -0.465487    0.003888
13
* Frequency(10)  451.2715
C     1.655172    0.412709    0.009804   -0.462610   -0.163644    0.000367
C     1.591517   -0.908475    0.121388   -0.577350   -0.214389    0.002667
N     0.264084   -1.561828    0.141578   -0.299237   -0.487538    0.034249
C    -1.112221   -0.728846    0.031876    0.647012   -0.148628    0.031271
N    -0.841699    0.580950   -0.073724    0.288254    0.033905    0.004746
C     0.432017    1.244519   -0.095323   -0.069647    0.476268   -0.042719
O    -2.118002   -1.349346    0.057989    0.506830    0.059436    0.008246
O     0.460675    2.433320   -0.195395   -0.053869    0.512476   -0.044918
H     2.437631   -1.596194    0.203530   -0.442349   -0.031160   -0.009260
H     0.155031   -2.120953    1.005549   -0.407037   -0.463278    0.053240
H    -1.646090    1.212577   -0.149933   -0.097517   -0.500061    0.038107
H     2.604283    0.954502   -0.010560   -0.171116   -0.713320    0.054471
H     0.199290   -2.261883   -0.617796   -0.406635   -0.465487    0.003888
13
* Frequency(10)  451.2715
C     1.705585    0.430542    0.009764   -0.462610   -0.163644    0.000367
C     1.654433   -0.885112    0.121097   -0.577350   -0.214389    0.002667
N     0.296693   -1.508700    0.137846   -0.299237   -0.487538    0.034249
C    -1.182728   -0.712649    0.028469    0.647012   -0.148628    0.031271
N    -0.873111    0.577255   -0.074242    0.288254    0.033905    0.004746
C     0.439607    1.192618   -0.090668   -0.069647    0.476268   -0.042719
O    -2.173233   -1.355823    0.057091    0.506830    0.059436    0.008246
O     0.466546    2.377474   -0.190500   -0.053869    0.512476   -0.044918
H     2.485836   -1.592798    0.204539   -0.442349   -0.031160   -0.009260
H     0.199387   -2.070468    0.999747   -0.407037   -0.463278    0.053240
H    -1.635464    1.267070   -0.154086   -0.097517   -0.500061    0.038107
H     2.622930    1.032235   -0.016496   -0.171116   -0.713320    0.054471
H     0.243602   -2.211157   -0.618220   -0.406635   -0.465487    0.003888
13
* Frequency(10)  451.2715
C     1.747646    0.445420    0.009731   -0.462610   -0.163644    0.000367
C     1.706927   -0.865620    0.120855   -0.577350   -0.214389    0.002667
N     0.323900   -1.464372    0.134732   -0.299237   -0.487538    0.034249
C    -1.241555   -0.699136    0.025626    0.647012   -0.148628    0.031271
N    -0.899319    0.574173   -0.074673    0.288254    0.033905    0.004746
C     0.445939    1.149315   -0.086784   -0.069647    0.476268   -0.042719
O    -2.219315   -1.361227    0.056341    0.506830    0.059436    0.008246
O     0.471444    2.330878   -0.186416   -0.053869    0.512476   -0.044918
H     2.526055   -1.589965    0.205381   -0.442349   -0.031160   -0.009260
H     0.236396   -2.028346    0.994906   -0.407037   -0.463278    0.053240
H    -1.626597    1.312537   -0.157551   -0.097517   -0.500061    0.038107
H     2.638488    1.097091   -0.021449   -0.171116   -0.713320    0.054471
H     0.280574   -2.168834   -0.618573   -0.406635   -0.465487    0.003888
13
* Frequency(10)  451.2715
C     1.776798    0.455733    0.009708   -0.462610   -0.163644    0.000367
C     1.743310   -0.852109    0.120687   -0.577350   -0.214389    0.002667
N     0.342757   -1.433648    0.132574   -0.299237   -0.487538    0.034249
C    -1.282328   -0.689769    0.023655    0.647012   -0.148628    0.031271
N    -0.917484    0.572036   -0.074972    0.288254    0.033905    0.004746
C     0.450328    1.119302   -0.084092   -0.069647    0.476268   -0.042719
O    -2.251254   -1.364972    0.055821    0.506830    0.059436    0.008246
O     0.474838    2.298584   -0.183585   -0.053869    0.512476   -0.044918
H     2.553931   -1.588001    0.205965   -0.442349   -0.031160   -0.009260
H     0.262046   -1.999151    0.991551   -0.407037   -0.463278    0.053240
H    -1.620452    1.344049   -0.159952   -0.097517   -0.500061    0.038107
H     2.649271    1.142043   -0.024881   -0.171116   -0.713320    0.054471
H     0.306199   -2.139500   -0.618818   -0.406635   -0.465487    0.003888
13
* Frequency(10)  451.2715
C     1.789883    0.460361    0.009697   -0.462610   -0.163644    0.000367
C     1.759639   -0.846046    0.120611   -0.577350   -0.214389    0.002667
N     0.351221   -1.419859    0.131605   -0.299237   -0.487538    0.034249
C    -1.300628   -0.685566    0.022770    0.647012   -0.148628    0.031271
N    -0.925637    0.571077   -0.075106    0.288254    0.033905    0.004746
C     0.452298    1.105831   -0.082884   -0.069647    0.476268   -0.042719
O    -2.265589   -1.366653    0.055588    0.506830    0.059436    0.008246
O     0.476362    2.284089   -0.182315   -0.053869    0.512476   -0.044918
H     2.566442   -1.587120    0.206227   -0.442349   -0.031160   -0.009260
H     0.273559   -1.986048    0.990045   -0.407037   -0.463278    0.053240
H    -1.617694    1.358193   -0.161030   -0.097517   -0.500061    0.038107
H     2.654111    1.162218   -0.026422   -0.171116   -0.713320    0.054471
H     0.317700   -2.126334   -0.618928   -0.406635   -0.465487    0.003888
13
* Frequency(10)  451.2715
C     1.785481    0.458804    0.009701   -0.462610   -0.163644    0.000367
C     1.754146   -0.848086    0.120637   -0.577350   -0.214389    0.002667
N     0.348374   -1.424498    0.131931   -0.299237   -0.487538    0.034249
C    -1.294472   -0.686980    0.023068    0.647012   -0.148628    0.031271
N    -0.922894    0.571400   -0.075061    0.288254    0.033905    0.004746
C     0.451635    1.110363   -0.083290   -0.069647    0.476268   -0.042719
O    -2.260767   -1.366088    0.055666    0.506830    0.059436    0.008246
O     0.475849    2.288965   -0.182742   -0.053869    0.512476   -0.044918
H     2.562233   -1.587416    0.206138   -0.442349   -0.031160   -0.009260
H     0.269686   -1.990456    0.990552   -0.407037   -0.463278    0.053240
H    -1.618622    1.353435   -0.160668   -0.097517   -0.500061    0.038107
H     2.652483    1.155431   -0.025904   -0.171116   -0.713320    0.054471
H     0.313831   -2.130763   -0.618891   -0.406635   -0.465487    0.003888
13
* Frequency(10)  451.2715
C     1.764071    0.451231    0.009718   -0.462610   -0.163644    0.000367
C     1.727425   -0.858008    0.120760   -0.577350   -0.214389    0.002667
N     0.334525   -1.447062    0.133516   -0.299237   -0.487538    0.034249
C    -1.264527   -0.693859    0.024515    0.647012   -0.148628    0.031271
N    -0.909554    0.572969   -0.074842    0.288254    0.033905    0.004746
C     0.448412    1.132405   -0.085267   -0.069647    0.476268   -0.042719
O    -2.237310   -1.363337    0.056048    0.506830    0.059436    0.008246
O     0.473356    2.312683   -0.184821   -0.053869    0.512476   -0.044918
H     2.541760   -1.588859    0.205710   -0.442349   -0.031160   -0.009260
H     0.250847   -2.011897    0.993016   -0.407037   -0.463278    0.053240
H    -1.623135    1.330292   -0.158904   -0.097517   -0.500061    0.038107
H     2.644563    1.122418   -0.023383   -0.171116   -0.713320    0.054471
H     0.295012   -2.152307   -0.618711   -0.406635   -0.465487    0.003888
13
* Frequency(10)  451.2715
C     1.727972    0.438461    0.009746   -0.462610   -0.163644    0.000367
C     1.682373   -0.874737    0.120968   -0.577350   -0.214389    0.002667
N     0.311174   -1.485106    0.136188   -0.299237   -0.487538    0.034249
C    -1.214038   -0.705457    0.026955    0.647012   -0.148628    0.031271
N    -0.887060    0.575615   -0.074471    0.288254    0.033905    0.004746
C     0.442977    1.169570   -0.088601   -0.069647    0.476268   -0.042719
O    -2.197760   -1.358699    0.056692    0.506830    0.059436    0.008246
O     0.469153    2.352673   -0.188326   -0.053869    0.512476   -0.044918
H     2.507242   -1.591290    0.204987   -0.442349   -0.031160   -0.009260
H     0.219085   -2.048049    0.997170   -0.407037   -0.463278    0.053240
H    -1.630744    1.291270   -0.155930   -0.097517   -0.500061    0.038107
H     2.631210    1.066755   -0.019132   -0.171116   -0.713320    0.054471
H     0.263280   -2.188631   -0.618408   -0.406635   -0.465487    0.003888
13
* Frequency(10)  451.2715
C     1.681095    0.421879    0.009784   -0.462610   -0.163644    0.000367
C     1.623870   -0.896461    0.121238   -0.577350   -0.214389    0.002667
N     0.280852   -1.534508    0.139659   -0.299237   -0.487538    0.034249
C    -1.148477   -0.720517    0.030124    0.647012   -0.148628    0.031271
N    -0.857851    0.579050   -0.073990    0.288254    0.033905    0.004746
C     0.435920    1.217830   -0.092929   -0.069647    0.476268   -0.042719
O    -2.146403   -1.352676    0.057527    0.506830    0.059436    0.008246
O     0.463694    2.404602   -0.192878   -0.053869    0.512476   -0.044918
H     2.462419   -1.594448    0.204049   -0.442349   -0.031160   -0.009260
H     0.177840   -2.094992    1.002565   -0.407037   -0.463278    0.053240
H    -1.640626    1.240599   -0.152069   -0.097517   -0.500061    0.038107
H     2.613871    0.994474   -0.013612   -0.171116   -0.713320    0.054471
H     0.222076   -2.235798   -0.618014   -0.406635   -0.465487    0.003888
13
* Frequency(10)  451.2715
C     1.628522    0.403282    0.009825   -0.462610   -0.163644    0.000367
C     1.558257   -0.920826    0.121541   -0.577350   -0.214389    0.002667
N     0.246846   -1.589915    0.143551   -0.299237   -0.487538    0.034249
C    -1.074947   -0.737408    0.033678    0.647012   -0.148628    0.031271
N    -0.825093    0.582903   -0.073451    0.288254    0.033905    0.004746
C     0.428005    1.271956   -0.097784   -0.069647    0.476268   -0.042719
O    -2.088804   -1.345922    0.058464    0.506830    0.059436    0.008246
O     0.457572    2.462843   -0.197982   -0.053869    0.512476   -0.044918
H     2.412149   -1.597989    0.202997   -0.442349   -0.031160   -0.009260
H     0.131582   -2.147641    1.008616   -0.407037   -0.463278    0.053240
H    -1.651708    1.183769   -0.147738   -0.097517   -0.500061    0.038107
H     2.594425    0.913409   -0.007422   -0.171116   -0.713320    0.054471
H     0.175864   -2.288698   -0.617572   -0.406635   -0.465487    0.003888
