13
* (null), Energy   -1000.0000000
C     1.372793    0.529851   -0.015036    0.001506    0.000202    0.000025
C     1.302724   -0.794210    0.095800   -0.000161   -0.000279    0.000021
N    -0.008640   -1.463020    0.118827    0.000744   -0.002811    0.000274
C    -1.330555   -0.610659    0.008144    0.000756   -0.001323    0.000132
N    -1.080705    0.709657   -0.097399   -0.117496    0.087881   -0.011038
C     0.172593    1.398876   -0.122183    0.000790   -0.001424    0.000143
O    -2.344242   -1.219751    0.031049   -0.001098   -0.000696    0.000029
O     0.201841    2.589695   -0.223265   -0.000245    0.000812   -0.000077
H     2.156844   -1.471062    0.176152   -0.001162    0.001694   -0.000166
H    -0.124198   -2.019917    0.984598    0.002576    0.009327   -0.016054
H    -1.907129    1.310644   -0.173530    1.607839   -1.170667    0.148362
H     2.338608    1.040183   -0.032851   -0.001769   -0.002576    0.000173
H    -0.080594   -2.162817   -0.641747    0.001765    0.011892    0.014195
13
* Frequency(38) 3516.6867
C     1.372964    0.529874   -0.015033    0.001506    0.000202    0.000025
C     1.302706   -0.794241    0.095803   -0.000161   -0.000279    0.000021
N    -0.008556   -1.463340    0.118858    0.000744   -0.002811    0.000274
C    -1.330470   -0.610809    0.008160    0.000756   -0.001323    0.000132
N    -1.094058    0.719644   -0.098653   -0.117496    0.087881   -0.011038
C     0.172683    1.398714   -0.122166    0.000790   -0.001424    0.000143
O    -2.344367   -1.219830    0.031052   -0.001098   -0.000696    0.000029
O     0.201813    2.589788   -0.223273   -0.000245    0.000812   -0.000077
H     2.156712   -1.470869    0.176133   -0.001162    0.001694   -0.000166
H    -0.123905   -2.018857    0.982774    0.002576    0.009327   -0.016054
H    -1.724406    1.177603   -0.156669    1.607839   -1.170667    0.148362
H     2.338406    1.039890   -0.032832   -0.001769   -0.002576    0.000173
H    -0.080393   -2.161466   -0.640134    0.001765    0.011892    0.014195
13
* Frequency(38) 3516.6867
C     1.373117    0.529895   -0.015031    0.001506    0.000202    0.000025
C     1.302689   -0.794269    0.095805   -0.000161   -0.000279    0.000021
N    -0.008480   -1.463625    0.118886    0.000744   -0.002811    0.000274
C    -1.330393   -0.610944    0.008173    0.000756   -0.001323    0.000132
N    -1.105964    0.728549   -0.099772   -0.117496    0.087881   -0.011038
C     0.172763    1.398570   -0.122152    0.000790   -0.001424    0.000143
O    -2.344478   -1.219900    0.031055   -0.001098   -0.000696    0.000029
O     0.201789    2.589870   -0.223281   -0.000245    0.000812   -0.000077
H     2.156594   -1.470698    0.176116   -0.001162    0.001694   -0.000166
H    -0.123644   -2.017912    0.981147    0.002576    0.009327   -0.016054
H    -1.561485    1.058980   -0.141636    1.607839   -1.170667    0.148362
H     2.338227    1.039629   -0.032814   -0.001769   -0.002576    0.000173
H    -0.080214   -2.160261   -0.638696    0.001765    0.011892    0.014195
13
* Frequency(38) 3516.6867
C     1.373234    0.529910   -0.015029    0.001506    0.000202    0.000025
C     1.302677   -0.794291    0.095806   -0.000161   -0.000279    0.000021
N    -0.008422   -1.463844    0.118907    0.000744   -0.002811    0.000274
C    -1.330334   -0.611047    0.008183    0.000756   -0.001323    0.000132
N    -1.115132    0.735407   -0.100633   -0.117496    0.087881   -0.011038
C     0.172825    1.398459   -0.122141    0.000790   -0.001424    0.000143
O    -2.344564   -1.219955    0.031057   -0.001098   -0.000696    0.000029
O     0.201769    2.589933   -0.223287   -0.000245    0.000812   -0.000077
H     2.156503   -1.470565    0.176103   -0.001162    0.001694   -0.000166
H    -0.123443   -2.017184    0.979894    0.002576    0.009327   -0.016054
H    -1.436019    0.967628   -0.130058    1.607839   -1.170667    0.148362
H     2.338089    1.039428   -0.032801   -0.001769   -0.002576    0.000173
H    -0.080076   -2.159333   -0.637588    0.001765    0.011892    0.014195
13
* Frequency(38) 3516.6867
C     1.373304    0.529920   -0.015028    0.001506    0.000202    0.000025
C     1.302669   -0.794304    0.095807   -0.000161   -0.000279    0.000021
N    -0.008388   -1.463974    0.118920    0.000744   -0.002811    0.000274
C    -1.330299   -0.611108    0.008189    0.000756   -0.001323    0.000132
N    -1.120570    0.739474   -0.101144   -0.117496    0.087881   -0.011038
C     0.172861    1.398393   -0.122134    0.000790   -0.001424    0.000143
O    -2.344615   -1.219987    0.031058   -0.001098   -0.000696    0.000029
O     0.201758    2.589971   -0.223291   -0.000245    0.000812   -0.000077
H     2.156449   -1.470487    0.176095   -0.001162    0.001694   -0.000166
H    -0.123324   -2.016752    0.979151    0.002576    0.009327   -0.016054
H    -1.361605    0.913448   -0.123192    1.607839   -1.170667    0.148362
H     2.338007    1.039309   -0.032793   -0.001769   -0.002576    0.000173
H    -0.079995   -2.158782   -0.636931    0.001765    0.011892    0.014195
13
* Frequency(38) 3516.6867
C     1.373318    0.529922   -0.015027    0.001506    0.000202    0.000025
C     1.302668   -0.794307    0.095807   -0.000161   -0.000279    0.000021
N    -0.008381   -1.464001    0.118923    0.000744   -0.002811    0.000274
C    -1.330292   -0.611121    0.008191    0.000756   -0.001323    0.000132
N    -1.121688    0.740310   -0.101249   -0.117496    0.087881   -0.011038
C     0.172869    1.398379   -0.122133    0.000790   -0.001424    0.000143
O    -2.344625   -1.219994    0.031059   -0.001098   -0.000696    0.000029
O     0.201756    2.589978   -0.223291   -0.000245    0.000812   -0.000077
H     2.156438   -1.470471    0.176094   -0.001162    0.001694   -0.000166
H    -0.123299   -2.016663    0.978999    0.002576    0.009327   -0.016054
H    -1.346307    0.902309   -0.121780    1.607839   -1.170667    0.148362
H     2.337990    1.039284   -0.032791   -0.001769   -0.002576    0.000173
H    -0.079978   -2.158669   -0.636796    0.001765    0.011892    0.014195
13
* Frequency(38) 3516.6867
C     1.373276    0.529916   -0.015028    0.001506    0.000202    0.000025
C     1.302672   -0.794299    0.095807   -0.000161   -0.000279    0.000021
N    -0.008402   -1.463921    0.118915    0.000744   -0.002811    0.000274
C    -1.330313   -0.611083    0.008187    0.000756   -0.001323    0.000132
N    -1.118365    0.737825   -0.100937   -0.117496    0.087881   -0.011038
C     0.172846    1.398419   -0.122137    0.000790   -0.001424    0.000143
O    -2.344594   -1.219974    0.031058   -0.001098   -0.000696    0.000029
O     0.201763    2.589955   -0.223289   -0.000245    0.000812   -0.000077
H     2.156471   -1.470519    0.176098   -0.001162    0.001694   -0.000166
H    -0.123372   -2.016927    0.979453    0.002576    0.009327   -0.016054
H    -1.391783    0.935421   -0.125977    1.607839   -1.170667    0.148362
H     2.338040    1.039357   -0.032796   -0.001769   -0.002576    0.000173
H    -0.080028   -2.159005   -0.637197    0.001765    0.011892    0.014195
13
* Frequency(38) 3516.6867
C     1.373181    0.529903   -0.015030    0.001506    0.000202    0.000025
C     1.302682   -0.794281    0.095806   -0.000161   -0.000279    0.000021
N    -0.008449   -1.463744    0.118898    0.000744   -0.002811    0.000274
C    -1.330361   -0.611000    0.008179    0.000756   -0.001323    0.000132
N    -1.110961    0.732287   -0.100241   -0.117496    0.087881   -0.011038
C     0.172797    1.398509   -0.122146    0.000790   -0.001424    0.000143
O    -2.344525   -1.219930    0.031056   -0.001098   -0.000696    0.000029
O     0.201778    2.589904   -0.223284   -0.000245    0.000812   -0.000077
H     2.156544   -1.470626    0.176109   -0.001162    0.001694   -0.000166
H    -0.123534   -2.017515    0.980464    0.002576    0.009327   -0.016054
H    -1.493105    1.009193   -0.135326    1.607839   -1.170667    0.148362
H     2.338152    1.039519   -0.032807   -0.001769   -0.002576    0.000173
H    -0.080139   -2.159755   -0.638092    0.001765    0.011892    0.014195
13
* Frequency(38) 3516.6867
C     1.373044    0.529885   -0.015032    0.001506    0.000202    0.000025
C     1.302697   -0.794256    0.095804   -0.000161   -0.000279    0.000021
N    -0.008516   -1.463489    0.118873    0.000744   -0.002811    0.000274
C    -1.330429   -0.610880    0.008167    0.000756   -0.001323    0.000132
N    -1.100278    0.724296   -0.099237   -0.117496    0.087881   -0.011038
C     0.172725    1.398639   -0.122159    0.000790   -0.001424    0.000143
O    -2.344425   -1.219867    0.031053   -0.001098   -0.000696    0.000029
O     0.201800    2.589831   -0.223277   -0.000245    0.000812   -0.000077
H     2.156650   -1.470780    0.176124   -0.001162    0.001694   -0.000166
H    -0.123769   -2.018363    0.981924    0.002576    0.009327   -0.016054
H    -1.639292    1.115632   -0.148815    1.607839   -1.170667    0.148362
H     2.338313    1.039754   -0.032823   -0.001769   -0.002576    0.000173
H    -0.080300   -2.160836   -0.639383    0.001765    0.011892    0.014195
13
* Frequency(38) 3516.6867
C     1.372880    0.529863   -0.015035    0.001506    0.000202    0.000025
C     1.302715   -0.794226    0.095801   -0.000161   -0.000279    0.000021
N    -0.008597   -1.463182    0.118843    0.000744   -0.002811    0.000274
C    -1.330512   -0.610735    0.008152    0.000756   -0.001323    0.000132
N    -1.087474    0.714720   -0.098035   -0.117496    0.087881   -0.011038
C     0.172639    1.398794   -0.122175    0.000790   -0.001424    0.000143
O    -2.344305   -1.219791    0.031050   -0.001098   -0.000696    0.000029
O     0.201827    2.589742   -0.223269   -0.000245    0.000812   -0.000077
H     2.156777   -1.470964    0.176142   -0.001162    0.001694   -0.000166
H    -0.124049   -2.019379    0.983673    0.002576    0.009327   -0.016054
H    -1.814504    1.243204   -0.164983    1.607839   -1.170667    0.148362
H     2.338506    1.040034   -0.032841   -0.001769   -0.002576    0.000173
H    -0.080492   -2.162132   -0.640929    0.001765    0.011892    0.014195
13
* Frequency(38) 3516.6867
C     1.372706    0.529839   -0.015038    0.001506    0.000202    0.000025
C     1.302733   -0.794193    0.095799   -0.000161   -0.000279    0.000021
N    -0.008683   -1.462858    0.118811    0.000744   -0.002811    0.000274
C    -1.330599   -0.610583    0.008137    0.000756   -0.001323    0.000132
N    -1.073936    0.704594   -0.096763   -0.117496    0.087881   -0.011038
C     0.172548    1.398958   -0.122191    0.000790   -0.001424    0.000143
O    -2.344179   -1.219711    0.031047   -0.001098   -0.000696    0.000029
O     0.201855    2.589648   -0.223260   -0.000245    0.000812   -0.000077
H     2.156911   -1.471159    0.176161   -0.001162    0.001694   -0.000166
H    -0.124346   -2.020454    0.985523    0.002576    0.009327   -0.016054
H    -1.999753    1.378084   -0.182077    1.607839   -1.170667    0.148362
H     2.338709    1.040331   -0.032861   -0.001769   -0.002576    0.000173
H    -0.080695   -2.163502   -0.642565    0.001765    0.011892    0.014195
13
* Frequency(38) 3516.6867
C     1.372542    0.529817   -0.015040    0.001506    0.000202    0.000025
C     1.302751   -0.794163    0.095797   -0.000161   -0.000279    0.000021
N    -0.008764   -1.462552    0.118782    0.000744   -0.002811    0.000274
C    -1.330681   -0.610439    0.008122    0.000756   -0.001323    0.000132
N    -1.061132    0.695018   -0.095560   -0.117496    0.087881   -0.011038
C     0.172462    1.399113   -0.122207    0.000790   -0.001424    0.000143
O    -2.344059   -1.219635    0.031044   -0.001098   -0.000696    0.000029
O     0.201882    2.589560   -0.223252   -0.000245    0.000812   -0.000077
H     2.157037   -1.471344    0.176180   -0.001162    0.001694   -0.000166
H    -0.124627   -2.021470    0.987272    0.002576    0.009327   -0.016054
H    -2.174965    1.505655   -0.198244    1.607839   -1.170667    0.148362
H     2.338902    1.040612   -0.032880   -0.001769   -0.002576    0.000173
H    -0.080888   -2.164798   -0.644112    0.001765    0.011892    0.014195
13
* Frequency(38) 3516.6867
C     1.372405    0.529799   -0.015043    0.001506    0.000202    0.000025
C     1.302765   -0.794138    0.095795   -0.000161   -0.000279    0.000021
N    -0.008832   -1.462297    0.118757    0.000744   -0.002811    0.000274
C    -1.330750   -0.610319    0.008110    0.000756   -0.001323    0.000132
N    -1.050449    0.687027   -0.094556   -0.117496    0.087881   -0.011038
C     0.172390    1.399242   -0.122220    0.000790   -0.001424    0.000143
O    -2.343959   -1.219572    0.031041   -0.001098   -0.000696    0.000029
O     0.201904    2.589486   -0.223245   -0.000245    0.000812   -0.000077
H     2.157143   -1.471498    0.176195   -0.001162    0.001694   -0.000166
H    -0.124861   -2.022319    0.988732    0.002576    0.009327   -0.016054
H    -2.321153    1.612094   -0.211734    1.607839   -1.170667    0.148362
H     2.339063    1.040846   -0.032896   -0.001769   -0.002576    0.000173
H    -0.081048   -2.165879   -0.645403    0.001765    0.011892    0.014195
13
* Frequency(38) 3516.6867
C     1.372310    0.529786   -0.015044    0.001506    0.000202    0.000025
C     1.302776   -0.794120    0.095794   -0.000161   -0.000279    0.000021
N    -0.008879   -1.462119    0.118739    0.000744   -0.002811    0.000274
C    -1.330798   -0.610235    0.008102    0.000756   -0.001323    0.000132
N    -1.043045    0.681489   -0.093861   -0.117496    0.087881   -0.011038
C     0.172340    1.399332   -0.122229    0.000790   -0.001424    0.000143
O    -2.343890   -1.219528    0.031040   -0.001098   -0.000696    0.000029
O     0.201920    2.589435   -0.223240   -0.000245    0.000812   -0.000077
H     2.157216   -1.471605    0.176205   -0.001162    0.001694   -0.000166
H    -0.125023   -2.022906    0.989744    0.002576    0.009327   -0.016054
H    -2.422474    1.685867   -0.221083    1.607839   -1.170667    0.148362
H     2.339175    1.041008   -0.032907   -0.001769   -0.002576    0.000173
H    -0.081159   -2.166629   -0.646297    0.001765    0.011892    0.014195
13
* Frequency(38) 3516.6867
C     1.372267    0.529780   -0.015045    0.001506    0.000202    0.000025
C     1.302780   -0.794112    0.095793   -0.000161   -0.000279    0.000021
N    -0.008900   -1.462040    0.118732    0.000744   -0.002811    0.000274
C    -1.330819   -0.610198    0.008098    0.000756   -0.001323    0.000132
N    -1.039722    0.679004   -0.093548   -0.117496    0.087881   -0.011038
C     0.172318    1.399372   -0.122233    0.000790   -0.001424    0.000143
O    -2.343859   -1.219508    0.031039   -0.001098   -0.000696    0.000029
O     0.201927    2.589412   -0.223238   -0.000245    0.000812   -0.000077
H     2.157249   -1.471652    0.176210   -0.001162    0.001694   -0.000166
H    -0.125096   -2.023170    0.990198    0.002576    0.009327   -0.016054
H    -2.467950    1.718978   -0.225279    1.607839   -1.170667    0.148362
H     2.339225    1.041081   -0.032912   -0.001769   -0.002576    0.000173
H    -0.081209   -2.166965   -0.646699    0.001765    0.011892    0.014195
13
* Frequency(38) 3516.6867
C     1.372282    0.529782   -0.015045    0.001506    0.000202    0.000025
C     1.302779   -0.794115    0.095793   -0.000161   -0.000279    0.000021
N    -0.008893   -1.462067    0.118734    0.000744   -0.002811    0.000274
C    -1.330812   -0.610210    0.008100    0.000756   -0.001323    0.000132
N    -1.040840    0.679840   -0.093654   -0.117496    0.087881   -0.011038
C     0.172325    1.399359   -0.122231    0.000790   -0.001424    0.000143
O    -2.343869   -1.219515    0.031039   -0.001098   -0.000696    0.000029
O     0.201924    2.589420   -0.223239   -0.000245    0.000812   -0.000077
H     2.157238   -1.471636    0.176208   -0.001162    0.001694   -0.000166
H    -0.125071   -2.023081    0.990045    0.002576    0.009327   -0.016054
H    -2.452653    1.707839   -0.223868    1.607839   -1.170667    0.148362
H     2.339208    1.041057   -0.032910   -0.001769   -0.002576    0.000173
H    -0.081192   -2.166852   -0.646564    0.001765    0.011892    0.014195
13
* Frequency(38) 3516.6867
C     1.372351    0.529792   -0.015043    0.001506    0.000202    0.000025
C     1.302771   -0.794128    0.095794   -0.000161   -0.000279    0.000021
N    -0.008858   -1.462197    0.118747    0.000744   -0.002811    0.000274
C    -1.330777   -0.610272    0.008106    0.000756   -0.001323    0.000132
N    -1.046278    0.683907   -0.094164   -0.117496    0.087881   -0.011038
C     0.172362    1.399293   -0.122225    0.000790   -0.001424    0.000143
O    -2.343920   -1.219547    0.031040   -0.001098   -0.000696    0.000029
O     0.201913    2.589457   -0.223242   -0.000245    0.000812   -0.000077
H     2.157184   -1.471558    0.176201   -0.001162    0.001694   -0.000166
H    -0.124952   -2.022650    0.989302    0.002576    0.009327   -0.016054
H    -2.378239    1.653659   -0.217001    1.607839   -1.170667    0.148362
H     2.339126    1.040938   -0.032902   -0.001769   -0.002576    0.000173
H    -0.081111   -2.166302   -0.645907    0.001765    0.011892    0.014195
13
* Frequency(38) 3516.6867
C     1.372469    0.529808   -0.015042    0.001506    0.000202    0.000025
C     1.302759   -0.794150    0.095796   -0.000161   -0.000279    0.000021
N    -0.008800   -1.462416    0.118768    0.000744   -0.002811    0.000274
C    -1.330718   -0.610375    0.008116    0.000756   -0.001323    0.000132
N    -1.055446    0.690765   -0.095026   -0.117496    0.087881   -0.011038
C     0.172424    1.399182   -0.122214    0.000790   -0.001424    0.000143
O    -2.344006   -1.219601    0.031043   -0.001098   -0.000696    0.000029
O     0.201894    2.589521   -0.223248   -0.000245    0.000812   -0.000077
H     2.157093   -1.471426    0.176188   -0.001162    0.001694   -0.000166
H    -0.124751   -2.021922    0.988049    0.002576    0.009327   -0.016054
H    -2.252773    1.562307   -0.205424    1.607839   -1.170667    0.148362
H     2.338988    1.040737   -0.032889   -0.001769   -0.002576    0.000173
H    -0.080973   -2.165374   -0.644799    0.001765    0.011892    0.014195
13
* Frequency(38) 3516.6867
C     1.372622    0.529828   -0.015039    0.001506    0.000202    0.000025
C     1.302742   -0.794178    0.095798   -0.000161   -0.000279    0.000021
N    -0.008725   -1.462701    0.118796    0.000744   -0.002811    0.000274
C    -1.330641   -0.610509    0.008129    0.000756   -0.001323    0.000132
N    -1.067352    0.699670   -0.096144   -0.117496    0.087881   -0.011038
C     0.172504    1.399038   -0.122199    0.000790   -0.001424    0.000143
O    -2.344117   -1.219672    0.031045   -0.001098   -0.000696    0.000029
O     0.201869    2.589603   -0.223256   -0.000245    0.000812   -0.000077
H     2.156976   -1.471254    0.176171   -0.001162    0.001694   -0.000166
H    -0.124490   -2.020977    0.986423    0.002576    0.009327   -0.016054
H    -2.089851    1.443684   -0.190390    1.607839   -1.170667    0.148362
H     2.338809    1.040476   -0.032871   -0.001769   -0.002576    0.000173
H    -0.080794   -2.164169   -0.643360    0.001765    0.011892    0.014195
13
* Frequency(38) 3516.6867
C     1.372793    0.529851   -0.015036    0.001506    0.000202    0.000025
C     1.302724   -0.794210    0.095800   -0.000161   -0.000279    0.000021
N    -0.008640   -1.463020    0.118827    0.000744   -0.002811    0.000274
C    -1.330555   -0.610659    0.008144    0.000756   -0.001323    0.000132
N    -1.080705    0.709657   -0.097399   -0.117496    0.087881   -0.011038
C     0.172593    1.398876   -0.122183    0.000790   -0.001424    0.000143
O    -2.344242   -1.219751    0.031049   -0.001098   -0.000696    0.000029
O     0.201841    2.589695   -0.223265   -0.000245    0.000812   -0.000077
H     2.156844   -1.471062    0.176152   -0.001162    0.001694   -0.000166
H    -0.124198   -2.019917    0.984598    0.002576    0.009327   -0.016054
H    -1.907129    1.310644   -0.173530    1.607839   -1.170667    0.148362
H     2.338608    1.040183   -0.032851   -0.001769   -0.002576    0.000173
H    -0.080594   -2.162817   -0.641747    0.001765    0.011892    0.014195
