13
* (null), Energy   -1000.0000000
C     1.628522    0.403282    0.009825    0.003367    0.003601   -0.000212
C     1.558257   -0.920826    0.121541   -0.002200   -0.001112    0.000027
N     0.246846   -1.589915    0.143551   -0.017773   -0.118821    0.010604
C    -1.074947   -0.737408    0.033678    0.005811   -0.000994    0.000237
N    -0.825093    0.582903   -0.073451    0.000711    0.000194    0.000003
C     0.428005    1.271956   -0.097784    0.000018   -0.001437    0.000122
O    -2.088804   -1.345922    0.058464   -0.001864   -0.000435   -0.000014
O     0.457572    2.462843   -0.197982   -0.000005    0.000663   -0.000057
H     2.412149   -1.597989    0.202997   -0.002829    0.003744   -0.000405
H     0.131582   -2.147641    1.008616    0.149173    0.722140   -1.211265
H    -1.651708    1.183769   -0.147738   -0.021155    0.019146   -0.002222
H     2.594425    0.913409   -0.007422   -0.027654   -0.012282    0.000308
H     0.175864   -2.288698   -0.617572    0.085869    0.911369    1.065249
13
* Frequency(36) 3347.7222
C     1.628905    0.403691    0.009801    0.003367    0.003601   -0.000212
C     1.558007   -0.920952    0.121544   -0.002200   -0.001112    0.000027
N     0.244826   -1.603418    0.144756   -0.017773   -0.118821    0.010604
C    -1.074287   -0.737521    0.033705    0.005811   -0.000994    0.000237
N    -0.825012    0.582925   -0.073451    0.000711    0.000194    0.000003
C     0.428007    1.271793   -0.097770    0.000018   -0.001437    0.000122
O    -2.089016   -1.345971    0.058463   -0.001864   -0.000435   -0.000014
O     0.457572    2.462918   -0.197989   -0.000005    0.000663   -0.000057
H     2.411827   -1.597563    0.202951   -0.002829    0.003744   -0.000405
H     0.148535   -2.065574    0.870962    0.149173    0.722140   -1.211265
H    -1.654112    1.185945   -0.147991   -0.021155    0.019146   -0.002222
H     2.591282    0.912013   -0.007387   -0.027654   -0.012282    0.000308
H     0.185623   -2.185126   -0.496512    0.085869    0.911369    1.065249
13
* Frequency(36) 3347.7222
C     1.629246    0.404056    0.009780    0.003367    0.003601   -0.000212
C     1.557784   -0.921065    0.121547   -0.002200   -0.001112    0.000027
N     0.243025   -1.615458    0.145831   -0.017773   -0.118821    0.010604
C    -1.073698   -0.737622    0.033729    0.005811   -0.000994    0.000237
N    -0.824940    0.582945   -0.073450    0.000711    0.000194    0.000003
C     0.428009    1.271647   -0.097758    0.000018   -0.001437    0.000122
O    -2.089205   -1.346015    0.058461   -0.001864   -0.000435   -0.000014
O     0.457571    2.462985   -0.197994   -0.000005    0.000663   -0.000057
H     2.411540   -1.597184    0.202910   -0.002829    0.003744   -0.000405
H     0.163651   -1.992400    0.748225    0.149173    0.722140   -1.211265
H    -1.656256    1.187885   -0.148216   -0.021155    0.019146   -0.002222
H     2.588480    0.910769   -0.007356   -0.027654   -0.012282    0.000308
H     0.194324   -2.092777   -0.388571    0.085869    0.911369    1.065249
13
* Frequency(36) 3347.7222
C     1.629509    0.404337    0.009763    0.003367    0.003601   -0.000212
C     1.557612   -0.921152    0.121549   -0.002200   -0.001112    0.000027
N     0.241638   -1.624730    0.146658   -0.017773   -0.118821    0.010604
C    -1.073245   -0.737699    0.033747    0.005811   -0.000994    0.000237
N    -0.824884    0.582960   -0.073450    0.000711    0.000194    0.000003
C     0.428010    1.271535   -0.097748    0.000018   -0.001437    0.000122
O    -2.089350   -1.346049    0.058460   -0.001864   -0.000435   -0.000014
O     0.457571    2.463037   -0.197999   -0.000005    0.000663   -0.000057
H     2.411320   -1.596892    0.202878   -0.002829    0.003744   -0.000405
H     0.175291   -1.936048    0.653705    0.149173    0.722140   -1.211265
H    -1.657907    1.189379   -0.148389   -0.021155    0.019146   -0.002222
H     2.586322    0.909810   -0.007332   -0.027654   -0.012282    0.000308
H     0.201024   -2.021660   -0.305445    0.085869    0.911369    1.065249
13
* Frequency(36) 3347.7222
C     1.629665    0.404504    0.009754    0.003367    0.003601   -0.000212
C     1.557511   -0.921203    0.121550   -0.002200   -0.001112    0.000027
N     0.240815   -1.630229    0.147149   -0.017773   -0.118821    0.010604
C    -1.072976   -0.737745    0.033758    0.005811   -0.000994    0.000237
N    -0.824852    0.582969   -0.073450    0.000711    0.000194    0.000003
C     0.428011    1.271468   -0.097743    0.000018   -0.001437    0.000122
O    -2.089437   -1.346069    0.058459   -0.001864   -0.000435   -0.000014
O     0.457571    2.463068   -0.198001   -0.000005    0.000663   -0.000057
H     2.411189   -1.596719    0.202859   -0.002829    0.003744   -0.000405
H     0.182195   -1.902626    0.597645    0.149173    0.722140   -1.211265
H    -1.658886    1.190266   -0.148492   -0.021155    0.019146   -0.002222
H     2.585042    0.909242   -0.007318   -0.027654   -0.012282    0.000308
H     0.204999   -1.979480   -0.256144    0.085869    0.911369    1.065249
13
* Frequency(36) 3347.7222
C     1.629697    0.404538    0.009751    0.003367    0.003601   -0.000212
C     1.557490   -0.921214    0.121551   -0.002200   -0.001112    0.000027
N     0.240646   -1.631360    0.147250   -0.017773   -0.118821    0.010604
C    -1.072921   -0.737755    0.033760    0.005811   -0.000994    0.000237
N    -0.824845    0.582971   -0.073450    0.000711    0.000194    0.000003
C     0.428011    1.271455   -0.097742    0.000018   -0.001437    0.000122
O    -2.089454   -1.346073    0.058459   -0.001864   -0.000435   -0.000014
O     0.457571    2.463074   -0.198002   -0.000005    0.000663   -0.000057
H     2.411162   -1.596683    0.202855   -0.002829    0.003744   -0.000405
H     0.183614   -1.895755    0.586121    0.149173    0.722140   -1.211265
H    -1.659087    1.190448   -0.148513   -0.021155    0.019146   -0.002222
H     2.584779    0.909125   -0.007315   -0.027654   -0.012282    0.000308
H     0.205816   -1.970809   -0.246008    0.085869    0.911369    1.065249
13
* Frequency(36) 3347.7222
C     1.629601    0.404436    0.009757    0.003367    0.003601   -0.000212
C     1.557552   -0.921182    0.121550   -0.002200   -0.001112    0.000027
N     0.241149   -1.627999    0.146950   -0.017773   -0.118821    0.010604
C    -1.073085   -0.737726    0.033754    0.005811   -0.000994    0.000237
N    -0.824865    0.582966   -0.073450    0.000711    0.000194    0.000003
C     0.428011    1.271495   -0.097745    0.000018   -0.001437    0.000122
O    -2.089402   -1.346061    0.058460   -0.001864   -0.000435   -0.000014
O     0.457571    2.463055   -0.198000   -0.000005    0.000663   -0.000057
H     2.411242   -1.596789    0.202867   -0.002829    0.003744   -0.000405
H     0.179395   -1.916180    0.620380    0.149173    0.722140   -1.211265
H    -1.658489    1.189906   -0.148450   -0.021155    0.019146   -0.002222
H     2.585561    0.909472   -0.007323   -0.027654   -0.012282    0.000308
H     0.203387   -1.996586   -0.276138    0.085869    0.911369    1.065249
13
* Frequency(36) 3347.7222
C     1.629389    0.404209    0.009771    0.003367    0.003601   -0.000212
C     1.557691   -0.921112    0.121548   -0.002200   -0.001112    0.000027
N     0.242269   -1.620511    0.146281   -0.017773   -0.118821    0.010604
C    -1.073451   -0.737664    0.033739    0.005811   -0.000994    0.000237
N    -0.824910    0.582953   -0.073450    0.000711    0.000194    0.000003
C     0.428009    1.271586   -0.097753    0.000018   -0.001437    0.000122
O    -2.089284   -1.346034    0.058461   -0.001864   -0.000435   -0.000014
O     0.457571    2.463013   -0.197997   -0.000005    0.000663   -0.000057
H     2.411420   -1.597025    0.202892   -0.002829    0.003744   -0.000405
H     0.169995   -1.961688    0.696711    0.149173    0.722140   -1.211265
H    -1.657156    1.188700   -0.148310   -0.021155    0.019146   -0.002222
H     2.587304    0.910246   -0.007343   -0.027654   -0.012282    0.000308
H     0.197976   -2.054018   -0.343267    0.085869    0.911369    1.065249
13
* Frequency(36) 3347.7222
C     1.629083    0.403882    0.009790    0.003367    0.003601   -0.000212
C     1.557891   -0.921011    0.121546   -0.002200   -0.001112    0.000027
N     0.243885   -1.609708    0.145317   -0.017773   -0.118821    0.010604
C    -1.073980   -0.737573    0.033717    0.005811   -0.000994    0.000237
N    -0.824974    0.582936   -0.073450    0.000711    0.000194    0.000003
C     0.428008    1.271716   -0.097764    0.000018   -0.001437    0.000122
O    -2.089115   -1.345994    0.058462   -0.001864   -0.000435   -0.000014
O     0.457571    2.462953   -0.197992   -0.000005    0.000663   -0.000057
H     2.411677   -1.597365    0.202929   -0.002829    0.003744   -0.000405
H     0.156432   -2.027346    0.806841    0.149173    0.722140   -1.211265
H    -1.655232    1.186959   -0.148108   -0.021155    0.019146   -0.002222
H     2.589818    0.911363   -0.007371   -0.027654   -0.012282    0.000308
H     0.190168   -2.136881   -0.440121    0.085869    0.911369    1.065249
13
* Frequency(36) 3347.7222
C     1.628716    0.403489    0.009813    0.003367    0.003601   -0.000212
C     1.558130   -0.920890    0.121543   -0.002200   -0.001112    0.000027
N     0.245822   -1.596760    0.144162   -0.017773   -0.118821    0.010604
C    -1.074613   -0.737465    0.033691    0.005811   -0.000994    0.000237
N    -0.825052    0.582915   -0.073451    0.000711    0.000194    0.000003
C     0.428006    1.271873   -0.097777    0.000018   -0.001437    0.000122
O    -2.088912   -1.345947    0.058463   -0.001864   -0.000435   -0.000014
O     0.457572    2.462881   -0.197985   -0.000005    0.000663   -0.000057
H     2.411986   -1.597773    0.202973   -0.002829    0.003744   -0.000405
H     0.140176   -2.106040    0.938837    0.149173    0.722140   -1.211265
H    -1.652927    1.184872   -0.147866   -0.021155    0.019146   -0.002222
H     2.592832    0.912702   -0.007404   -0.027654   -0.012282    0.000308
H     0.180811   -2.236196   -0.556205    0.085869    0.911369    1.065249
13
* Frequency(36) 3347.7222
C     1.628328    0.403074    0.009838    0.003367    0.003601   -0.000212
C     1.558384   -0.920762    0.121540   -0.002200   -0.001112    0.000027
N     0.247869   -1.583069    0.142940   -0.017773   -0.118821    0.010604
C    -1.075282   -0.737351    0.033664    0.005811   -0.000994    0.000237
N    -0.825134    0.582892   -0.073451    0.000711    0.000194    0.000003
C     0.428004    1.272039   -0.097791    0.000018   -0.001437    0.000122
O    -2.088697   -1.345897    0.058465   -0.001864   -0.000435   -0.000014
O     0.457572    2.462804   -0.197979   -0.000005    0.000663   -0.000057
H     2.412312   -1.598204    0.203020   -0.002829    0.003744   -0.000405
H     0.122989   -2.189243    1.078394    0.149173    0.722140   -1.211265
H    -1.650489    1.182666   -0.147610   -0.021155    0.019146   -0.002222
H     2.596018    0.914117   -0.007440   -0.027654   -0.012282    0.000308
H     0.170917   -2.341201   -0.678939    0.085869    0.911369    1.065249
13
* Frequency(36) 3347.7222
C     1.627961    0.402682    0.009861    0.003367    0.003601   -0.000212
C     1.558624   -0.920640    0.121537   -0.002200   -0.001112    0.000027
N     0.249806   -1.570121    0.141785   -0.017773   -0.118821    0.010604
C    -1.075915   -0.737242    0.033638    0.005811   -0.000994    0.000237
N    -0.825211    0.582871   -0.073452    0.000711    0.000194    0.000003
C     0.428002    1.272195   -0.097804    0.000018   -0.001437    0.000122
O    -2.088494   -1.345849    0.058467   -0.001864   -0.000435   -0.000014
O     0.457573    2.462732   -0.197973   -0.000005    0.000663   -0.000057
H     2.412620   -1.598612    0.203064   -0.002829    0.003744   -0.000405
H     0.106733   -2.267937    1.210390    0.149173    0.722140   -1.211265
H    -1.648184    1.180580   -0.147368   -0.021155    0.019146   -0.002222
H     2.599032    0.915455   -0.007473   -0.027654   -0.012282    0.000308
H     0.161560   -2.440516   -0.795023    0.085869    0.911369    1.065249
13
* Frequency(36) 3347.7222
C     1.627655    0.402354    0.009880    0.003367    0.003601   -0.000212
C     1.558824   -0.920539    0.121535   -0.002200   -0.001112    0.000027
N     0.251422   -1.559318    0.140821   -0.017773   -0.118821    0.010604
C    -1.076444   -0.737152    0.033617    0.005811   -0.000994    0.000237
N    -0.825276    0.582854   -0.073452    0.000711    0.000194    0.000003
C     0.428000    1.272326   -0.097815    0.000018   -0.001437    0.000122
O    -2.088324   -1.345810    0.058468   -0.001864   -0.000435   -0.000014
O     0.457573    2.462672   -0.197968   -0.000005    0.000663   -0.000057
H     2.412877   -1.598953    0.203101   -0.002829    0.003744   -0.000405
H     0.093170   -2.333595    1.320520    0.149173    0.722140   -1.211265
H    -1.646260    1.178839   -0.147166   -0.021155    0.019146   -0.002222
H     2.601546    0.916572   -0.007501   -0.027654   -0.012282    0.000308
H     0.153752   -2.523379   -0.891877    0.085869    0.911369    1.065249
13
* Frequency(36) 3347.7222
C     1.627443    0.402127    0.009893    0.003367    0.003601   -0.000212
C     1.558962   -0.920469    0.121533   -0.002200   -0.001112    0.000027
N     0.252542   -1.551830    0.140152   -0.017773   -0.118821    0.010604
C    -1.076810   -0.737089    0.033602    0.005811   -0.000994    0.000237
N    -0.825321    0.582841   -0.073452    0.000711    0.000194    0.000003
C     0.427999    1.272417   -0.097823    0.000018   -0.001437    0.000122
O    -2.088207   -1.345782    0.058469   -0.001864   -0.000435   -0.000014
O     0.457574    2.462630   -0.197964   -0.000005    0.000663   -0.000057
H     2.413055   -1.599189    0.203127   -0.002829    0.003744   -0.000405
H     0.083769   -2.379102    1.396851    0.149173    0.722140   -1.211265
H    -1.644927    1.177633   -0.147026   -0.021155    0.019146   -0.002222
H     2.603289    0.917346   -0.007521   -0.027654   -0.012282    0.000308
H     0.148341   -2.580811   -0.959006    0.085869    0.911369    1.065249
13
* Frequency(36) 3347.7222
C     1.627348    0.402025    0.009899    0.003367    0.003601   -0.000212
C     1.559025   -0.920438    0.121532   -0.002200   -0.001112    0.000027
N     0.253045   -1.548469    0.139852   -0.017773   -0.118821    0.010604
C    -1.076974   -0.737061    0.033595    0.005811   -0.000994    0.000237
N    -0.825341    0.582836   -0.073452    0.000711    0.000194    0.000003
C     0.427999    1.272457   -0.097827    0.000018   -0.001437    0.000122
O    -2.088154   -1.345770    0.058469   -0.001864   -0.000435   -0.000014
O     0.457574    2.462611   -0.197962   -0.000005    0.000663   -0.000057
H     2.413135   -1.599295    0.203138   -0.002829    0.003744   -0.000405
H     0.079550   -2.399527    1.431110    0.149173    0.722140   -1.211265
H    -1.644329    1.177091   -0.146963   -0.021155    0.019146   -0.002222
H     2.604071    0.917693   -0.007529   -0.027654   -0.012282    0.000308
H     0.145913   -2.606588   -0.989136    0.085869    0.911369    1.065249
13
* Frequency(36) 3347.7222
C     1.627380    0.402060    0.009897    0.003367    0.003601   -0.000212
C     1.559004   -0.920448    0.121532   -0.002200   -0.001112    0.000027
N     0.252876   -1.549600    0.139953   -0.017773   -0.118821    0.010604
C    -1.076919   -0.737071    0.033597    0.005811   -0.000994    0.000237
N    -0.825334    0.582838   -0.073452    0.000711    0.000194    0.000003
C     0.427999    1.272444   -0.097825    0.000018   -0.001437    0.000122
O    -2.088172   -1.345774    0.058469   -0.001864   -0.000435   -0.000014
O     0.457574    2.462618   -0.197963   -0.000005    0.000663   -0.000057
H     2.413108   -1.599259    0.203134   -0.002829    0.003744   -0.000405
H     0.080969   -2.392656    1.419586    0.149173    0.722140   -1.211265
H    -1.644530    1.177273   -0.146984   -0.021155    0.019146   -0.002222
H     2.603808    0.917576   -0.007527   -0.027654   -0.012282    0.000308
H     0.146730   -2.597917   -0.979001    0.085869    0.911369    1.065249
13
* Frequency(36) 3347.7222
C     1.627536    0.402226    0.009887    0.003367    0.003601   -0.000212
C     1.558902   -0.920500    0.121534   -0.002200   -0.001112    0.000027
N     0.252053   -1.555099    0.140444   -0.017773   -0.118821    0.010604
C    -1.076650   -0.737117    0.033608    0.005811   -0.000994    0.000237
N    -0.825301    0.582847   -0.073452    0.000711    0.000194    0.000003
C     0.428000    1.272377   -0.097820    0.000018   -0.001437    0.000122
O    -2.088258   -1.345794    0.058468   -0.001864   -0.000435   -0.000014
O     0.457573    2.462648   -0.197966   -0.000005    0.000663   -0.000057
H     2.412977   -1.599086    0.203115   -0.002829    0.003744   -0.000405
H     0.087873   -2.359234    1.363526    0.149173    0.722140   -1.211265
H    -1.645509    1.178159   -0.147087   -0.021155    0.019146   -0.002222
H     2.602528    0.917008   -0.007512   -0.027654   -0.012282    0.000308
H     0.150704   -2.555737   -0.929699    0.085869    0.911369    1.065249
13
* Frequency(36) 3347.7222
C     1.627799    0.402507    0.009871    0.003367    0.003601   -0.000212
C     1.558730   -0.920587    0.121536   -0.002200   -0.001112    0.000027
N     0.250666   -1.564371    0.141272   -0.017773   -0.118821    0.010604
C    -1.076197   -0.737194    0.033627    0.005811   -0.000994    0.000237
N    -0.825246    0.582862   -0.073452    0.000711    0.000194    0.000003
C     0.428001    1.272265   -0.097810    0.000018   -0.001437    0.000122
O    -2.088403   -1.345828    0.058467   -0.001864   -0.000435   -0.000014
O     0.457573    2.462700   -0.197970   -0.000005    0.000663   -0.000057
H     2.412757   -1.598794    0.203084   -0.002829    0.003744   -0.000405
H     0.099514   -2.302883    1.269007    0.149173    0.722140   -1.211265
H    -1.647160    1.179654   -0.147260   -0.021155    0.019146   -0.002222
H     2.600370    0.916050   -0.007488   -0.027654   -0.012282    0.000308
H     0.157404   -2.484619   -0.846573    0.085869    0.911369    1.065249
13
* Frequency(36) 3347.7222
C     1.628140    0.402872    0.009849    0.003367    0.003601   -0.000212
C     1.558507   -0.920699    0.121538   -0.002200   -0.001112    0.000027
N     0.248865   -1.576411    0.142346   -0.017773   -0.118821    0.010604
C    -1.075608   -0.737295    0.033651    0.005811   -0.000994    0.000237
N    -0.825174    0.582881   -0.073451    0.000711    0.000194    0.000003
C     0.428003    1.272119   -0.097798    0.000018   -0.001437    0.000122
O    -2.088592   -1.345872    0.058466   -0.001864   -0.000435   -0.000014
O     0.457573    2.462767   -0.197976   -0.000005    0.000663   -0.000057
H     2.412470   -1.598414    0.203043   -0.002829    0.003744   -0.000405
H     0.114630   -2.229709    1.146270    0.149173    0.722140   -1.211265
H    -1.649304    1.181594   -0.147486   -0.021155    0.019146   -0.002222
H     2.597568    0.914805   -0.007457   -0.027654   -0.012282    0.000308
H     0.166105   -2.392271   -0.738632    0.085869    0.911369    1.065249
13
* Frequency(36) 3347.7222
C     1.628522    0.403282    0.009825    0.003367    0.003601   -0.000212
C     1.558257   -0.920826    0.121541   -0.002200   -0.001112    0.000027
N     0.246846   -1.589915    0.143551   -0.017773   -0.118821    0.010604
C    -1.074947   -0.737408    0.033678    0.005811   -0.000994    0.000237
N    -0.825093    0.582903   -0.073451    0.000711    0.000194    0.000003
C     0.428005    1.271956   -0.097784    0.000018   -0.001437    0.000122
O    -2.088804   -1.345922    0.058464   -0.001864   -0.000435   -0.000014
O     0.457572    2.462843   -0.197982   -0.000005    0.000663   -0.000057
H     2.412149   -1.597989    0.202997   -0.002829    0.003744   -0.000405
H     0.131582   -2.147641    1.008616    0.149173    0.722140   -1.211265
H    -1.651708    1.183769   -0.147738   -0.021155    0.019146   -0.002222
H     2.594425    0.913409   -0.007422   -0.027654   -0.012282    0.000308
H     0.175864   -2.288698   -0.617572    0.085869    0.911369    1.065249
