11
* (null), Energy   -1000.0000000
C     1.589770    0.404289    0.010476    0.026422   -0.076139   -0.920973
C     1.411370   -0.965186    0.118323   -0.001946    0.006076    0.079193
N     0.241399   -1.624530    0.140582   -0.022772    0.069657    0.836267
C    -0.900298   -0.884733    0.048827   -0.001851    0.004134    0.055292
N    -0.762264    0.508959   -0.063346    0.010753   -0.030148   -0.356657
C     0.427306    1.242907   -0.091179    0.006100   -0.015161   -0.184180
O    -2.041444   -1.368814    0.058335    0.006737   -0.022378   -0.279964
O     0.393949    2.478247   -0.194845   -0.019815    0.054351    0.656601
H     2.308617   -1.598423    0.195226   -0.010090    0.028822    0.361493
H    -1.625843    1.043584   -0.132009    0.006420   -0.014766   -0.181569
H     2.579572    0.863274    0.000136    0.035982   -0.104299   -1.256338
11
* Frequency(7)  192.1382
C     1.592773    0.395636   -0.094188    0.026422   -0.076139   -0.920973
C     1.411149   -0.964496    0.127323   -0.001946    0.006076    0.079193
N     0.238811   -1.616614    0.235620   -0.022772    0.069657    0.836267
C    -0.900508   -0.884264    0.055111   -0.001851    0.004134    0.055292
N    -0.761042    0.505533   -0.103878    0.010753   -0.030148   -0.356657
C     0.427999    1.241184   -0.112110    0.006100   -0.015161   -0.184180
O    -2.040678   -1.371357    0.026519    0.006737   -0.022378   -0.279964
O     0.391697    2.484423   -0.120225   -0.019815    0.054351    0.656601
H     2.307471   -1.595147    0.236308   -0.010090    0.028822    0.361493
H    -1.625113    1.041906   -0.152644    0.006420   -0.014766   -0.181569
H     2.583662    0.851421   -0.142640    0.035982   -0.104299   -1.256338
11
* Frequency(7)  192.1382
C     1.595450    0.387921   -0.187510    0.026422   -0.076139   -0.920973
C     1.410952   -0.963880    0.135347   -0.001946    0.006076    0.079193
N     0.236504   -1.609555    0.320358   -0.022772    0.069657    0.836267
C    -0.900696   -0.883845    0.060713   -0.001851    0.004134    0.055292
N    -0.759953    0.502478   -0.140018    0.010753   -0.030148   -0.356657
C     0.428617    1.239648   -0.130773    0.006100   -0.015161   -0.184180
O    -2.039995   -1.373624   -0.001850    0.006737   -0.022378   -0.279964
O     0.389689    2.489931   -0.053692   -0.019815    0.054351    0.656601
H     2.306448   -1.592227    0.272938   -0.010090    0.028822    0.361493
H    -1.624463    1.040410   -0.171042    0.006420   -0.014766   -0.181569
H     2.587308    0.840853   -0.269944    0.035982   -0.104299   -1.256338
11
* Frequency(7)  192.1382
C     1.597512    0.381979   -0.259377    0.026422   -0.076139   -0.920973
C     1.410800   -0.963406    0.141527   -0.001946    0.006076    0.079193
N     0.234727   -1.604120    0.385615   -0.022772    0.069657    0.836267
C    -0.900840   -0.883522    0.065028   -0.001851    0.004134    0.055292
N    -0.759114    0.500125   -0.167850    0.010753   -0.030148   -0.356657
C     0.429093    1.238465   -0.145145    0.006100   -0.015161   -0.184180
O    -2.039470   -1.375371   -0.023697    0.006737   -0.022378   -0.279964
O     0.388143    2.494172   -0.002455   -0.019815    0.054351    0.656601
H     2.305661   -1.589978    0.301146   -0.010090    0.028822    0.361493
H    -1.623962    1.039258   -0.185211    0.006420   -0.014766   -0.181569
H     2.590115    0.832714   -0.367981    0.035982   -0.104299   -1.256338
11
* Frequency(7)  192.1382
C     1.598735    0.378456   -0.302001    0.026422   -0.076139   -0.920973
C     1.410710   -0.963125    0.145192   -0.001946    0.006076    0.079193
N     0.233673   -1.600896    0.424319   -0.022772    0.069657    0.836267
C    -0.900926   -0.883331    0.067587   -0.001851    0.004134    0.055292
N    -0.758616    0.498730   -0.184356    0.010753   -0.030148   -0.356657
C     0.429376    1.237763   -0.153669    0.006100   -0.015161   -0.184180
O    -2.039158   -1.376406   -0.036654    0.006737   -0.022378   -0.279964
O     0.387226    2.496687    0.027934   -0.019815    0.054351    0.656601
H     2.305194   -1.588644    0.317877   -0.010090    0.028822    0.361493
H    -1.623665    1.038574   -0.193614    0.006420   -0.014766   -0.181569
H     2.591781    0.827887   -0.426127    0.035982   -0.104299   -1.256338
11
* Frequency(7)  192.1382
C     1.598986    0.377731   -0.310764    0.026422   -0.076139   -0.920973
C     1.410691   -0.963067    0.145946   -0.001946    0.006076    0.079193
N     0.233456   -1.600233    0.432276   -0.022772    0.069657    0.836267
C    -0.900944   -0.883292    0.068113   -0.001851    0.004134    0.055292
N    -0.758514    0.498443   -0.187750    0.010753   -0.030148   -0.356657
C     0.429434    1.237619   -0.155421    0.006100   -0.015161   -0.184180
O    -2.039094   -1.376619   -0.039318    0.006737   -0.022378   -0.279964
O     0.387037    2.497205    0.034181   -0.019815    0.054351    0.656601
H     2.305098   -1.588369    0.321316   -0.010090    0.028822    0.361493
H    -1.623604    1.038434   -0.195342    0.006420   -0.014766   -0.181569
H     2.592123    0.826894   -0.438080    0.035982   -0.104299   -1.256338
11
* Frequency(7)  192.1382
C     1.598239    0.379885   -0.284715    0.026422   -0.076139   -0.920973
C     1.410747   -0.963239    0.143706   -0.001946    0.006076    0.079193
N     0.234100   -1.602203    0.408623   -0.022772    0.069657    0.836267
C    -0.900891   -0.883408    0.066549   -0.001851    0.004134    0.055292
N    -0.758818    0.499296   -0.177662    0.010753   -0.030148   -0.356657
C     0.429261    1.238048   -0.150212    0.006100   -0.015161   -0.184180
O    -2.039284   -1.375986   -0.031399    0.006737   -0.022378   -0.279964
O     0.387597    2.495667    0.015610   -0.019815    0.054351    0.656601
H     2.305383   -1.589185    0.311092   -0.010090    0.028822    0.361493
H    -1.623785    1.038851   -0.190206    0.006420   -0.014766   -0.181569
H     2.591105    0.829844   -0.402546    0.035982   -0.104299   -1.256338
11
* Frequency(7)  192.1382
C     1.596574    0.384683   -0.226678    0.026422   -0.076139   -0.920973
C     1.410869   -0.963622    0.138715   -0.001946    0.006076    0.079193
N     0.235535   -1.606593    0.355924   -0.022772    0.069657    0.836267
C    -0.900775   -0.883669    0.063065   -0.001851    0.004134    0.055292
N    -0.759495    0.501196   -0.155187    0.010753   -0.030148   -0.356657
C     0.428877    1.239003   -0.138606    0.006100   -0.015161   -0.184180
O    -2.039709   -1.374576   -0.013757    0.006737   -0.022378   -0.279964
O     0.388846    2.492242   -0.025768   -0.019815    0.054351    0.656601
H     2.306019   -1.591001    0.288311   -0.010090    0.028822    0.361493
H    -1.624190    1.039782   -0.178764    0.006420   -0.014766   -0.181569
H     2.588838    0.836417   -0.323375    0.035982   -0.104299   -1.256338
11
* Frequency(7)  192.1382
C     1.594171    0.391605   -0.142941    0.026422   -0.076139   -0.920973
C     1.411046   -0.964174    0.131515   -0.001946    0.006076    0.079193
N     0.237606   -1.612926    0.279889   -0.022772    0.069657    0.836267
C    -0.900606   -0.884045    0.058038   -0.001851    0.004134    0.055292
N    -0.760473    0.503937   -0.122759    0.010753   -0.030148   -0.356657
C     0.428322    1.240381   -0.121860    0.006100   -0.015161   -0.184180
O    -2.040321   -1.372542    0.011698    0.006737   -0.022378   -0.279964
O     0.390648    2.487301   -0.085467   -0.019815    0.054351    0.656601
H     2.306937   -1.593621    0.255444   -0.010090    0.028822    0.361493
H    -1.624774    1.041125   -0.162256    0.006420   -0.014766   -0.181569
H     2.585566    0.845900   -0.209146    0.035982   -0.104299   -1.256338
11
* Frequency(7)  192.1382
C     1.591292    0.399902   -0.042580    0.026422   -0.076139   -0.920973
C     1.411258   -0.964836    0.122885   -0.001946    0.006076    0.079193
N     0.240087   -1.620517    0.188758   -0.022772    0.069657    0.836267
C    -0.900405   -0.884495    0.052012   -0.001851    0.004134    0.055292
N    -0.761645    0.507222   -0.083892    0.010753   -0.030148   -0.356657
C     0.427657    1.242034   -0.101789    0.006100   -0.015161   -0.184180
O    -2.041056   -1.370103    0.042207    0.006737   -0.022378   -0.279964
O     0.392807    2.481378   -0.157019   -0.019815    0.054351    0.656601
H     2.308036   -1.596762    0.216051   -0.010090    0.028822    0.361493
H    -1.625473    1.042734   -0.142469    0.006420   -0.014766   -0.181569
H     2.581645    0.857266   -0.072239    0.035982   -0.104299   -1.256338
11
* Frequency(7)  192.1382
C     1.588248    0.408675    0.063531    0.026422   -0.076139   -0.920973
C     1.411483   -0.965536    0.113761   -0.001946    0.006076    0.079193
N     0.242711   -1.628542    0.092407   -0.022772    0.069657    0.836267
C    -0.900191   -0.884972    0.045642   -0.001851    0.004134    0.055292
N    -0.762884    0.510696   -0.042800    0.010753   -0.030148   -0.356657
C     0.426954    1.243780   -0.080568    0.006100   -0.015161   -0.184180
O    -2.041832   -1.367525    0.074463    0.006737   -0.022378   -0.279964
O     0.395090    2.475116   -0.232670   -0.019815    0.054351    0.656601
H     2.309199   -1.600083    0.174401   -0.010090    0.028822    0.361493
H    -1.626213    1.044435   -0.121550    0.006420   -0.014766   -0.181569
H     2.577500    0.869283    0.072512    0.035982   -0.104299   -1.256338
11
* Frequency(7)  192.1382
C     1.585369    0.416972    0.163893    0.026422   -0.076139   -0.920973
C     1.411695   -0.966199    0.105131   -0.001946    0.006076    0.079193
N     0.245192   -1.636133    0.001276   -0.022772    0.069657    0.836267
C    -0.899990   -0.885422    0.039616   -0.001851    0.004134    0.055292
N    -0.764056    0.513981   -0.003934    0.010753   -0.030148   -0.356657
C     0.426290    1.245433   -0.060498    0.006100   -0.015161   -0.184180
O    -2.042566   -1.365086    0.104972    0.006737   -0.022378   -0.279964
O     0.397249    2.469193   -0.304222   -0.019815    0.054351    0.656601
H     2.310298   -1.603224    0.135008   -0.010090    0.028822    0.361493
H    -1.626912    1.046044   -0.101763    0.006420   -0.014766   -0.181569
H     2.573579    0.880649    0.209419    0.035982   -0.104299   -1.256338
11
* Frequency(7)  192.1382
C     1.582966    0.423895    0.247630    0.026422   -0.076139   -0.920973
C     1.411872   -0.966751    0.097930   -0.001946    0.006076    0.079193
N     0.247263   -1.642467   -0.074759   -0.022772    0.069657    0.836267
C    -0.899821   -0.885798    0.034589   -0.001851    0.004134    0.055292
N    -0.765033    0.516722    0.028494    0.010753   -0.030148   -0.356657
C     0.425735    1.246811   -0.043752    0.006100   -0.015161   -0.184180
O    -2.043178   -1.363051    0.130427    0.006737   -0.022378   -0.279964
O     0.399051    2.464251   -0.363922   -0.019815    0.054351    0.656601
H     2.311215   -1.605844    0.102140   -0.010090    0.028822    0.361493
H    -1.627496    1.047387   -0.085255    0.006420   -0.014766   -0.181569
H     2.570307    0.890132    0.323648    0.035982   -0.104299   -1.256338
11
* Frequency(7)  192.1382
C     1.581301    0.428693    0.305667    0.026422   -0.076139   -0.920973
C     1.411994   -0.967134    0.092940   -0.001946    0.006076    0.079193
N     0.248698   -1.646856   -0.127458   -0.022772    0.069657    0.836267
C    -0.899705   -0.886059    0.031104   -0.001851    0.004134    0.055292
N    -0.765711    0.518622    0.050970    0.010753   -0.030148   -0.356657
C     0.425350    1.247766   -0.032145    0.006100   -0.015161   -0.184180
O    -2.043603   -1.361641    0.148069    0.006737   -0.022378   -0.279964
O     0.400300    2.460826   -0.405299   -0.019815    0.054351    0.656601
H     2.311851   -1.607661    0.079360   -0.010090    0.028822    0.361493
H    -1.627901    1.048317   -0.073813    0.006420   -0.014766   -0.181569
H     2.568039    0.896704    0.402819    0.035982   -0.104299   -1.256338
11
* Frequency(7)  192.1382
C     1.580554    0.430846    0.331715    0.026422   -0.076139   -0.920973
C     1.412049   -0.967306    0.090700   -0.001946    0.006076    0.079193
N     0.249342   -1.648826   -0.151111   -0.022772    0.069657    0.836267
C    -0.899652   -0.886175    0.029541   -0.001851    0.004134    0.055292
N    -0.766015    0.519475    0.061058    0.010753   -0.030148   -0.356657
C     0.425178    1.248195   -0.026936    0.006100   -0.015161   -0.184180
O    -2.043793   -1.361008    0.155988    0.006737   -0.022378   -0.279964
O     0.400860    2.459289   -0.423870   -0.019815    0.054351    0.656601
H     2.312137   -1.608476    0.069135   -0.010090    0.028822    0.361493
H    -1.628082    1.048735   -0.068677    0.006420   -0.014766   -0.181569
H     2.567022    0.899654    0.438353    0.035982   -0.104299   -1.256338
11
* Frequency(7)  192.1382
C     1.580806    0.430122    0.322953    0.026422   -0.076139   -0.920973
C     1.412031   -0.967248    0.091453   -0.001946    0.006076    0.079193
N     0.249125   -1.648164   -0.143155   -0.022772    0.069657    0.836267
C    -0.899670   -0.886136    0.030067   -0.001851    0.004134    0.055292
N    -0.765913    0.519188    0.057664    0.010753   -0.030148   -0.356657
C     0.425236    1.248051   -0.028688    0.006100   -0.015161   -0.184180
O    -2.043729   -1.361221    0.153324    0.006737   -0.022378   -0.279964
O     0.400672    2.459806   -0.417623   -0.019815    0.054351    0.656601
H     2.312041   -1.608202    0.072575   -0.010090    0.028822    0.361493
H    -1.628021    1.048595   -0.070405    0.006420   -0.014766   -0.181569
H     2.567364    0.898662    0.426399    0.035982   -0.104299   -1.256338
11
* Frequency(7)  192.1382
C     1.582028    0.426598    0.280329    0.026422   -0.076139   -0.920973
C     1.411941   -0.966967    0.095119   -0.001946    0.006076    0.079193
N     0.248071   -1.644940   -0.104451   -0.022772    0.069657    0.836267
C    -0.899756   -0.885945    0.032626   -0.001851    0.004134    0.055292
N    -0.765415    0.517792    0.041157    0.010753   -0.030148   -0.356657
C     0.425518    1.247349   -0.037212    0.006100   -0.015161   -0.184180
O    -2.043418   -1.362257    0.140367    0.006737   -0.022378   -0.279964
O     0.399754    2.462322   -0.387234   -0.019815    0.054351    0.656601
H     2.311574   -1.606868    0.089305   -0.010090    0.028822    0.361493
H    -1.627724    1.047911   -0.078808    0.006420   -0.014766   -0.181569
H     2.569029    0.893835    0.368254    0.035982   -0.104299   -1.256338
11
* Frequency(7)  192.1382
C     1.584090    0.420657    0.208462    0.026422   -0.076139   -0.920973
C     1.411789   -0.966493    0.101298   -0.001946    0.006076    0.079193
N     0.246294   -1.639504   -0.039194   -0.022772    0.069657    0.836267
C    -0.899900   -0.885622    0.036940   -0.001851    0.004134    0.055292
N    -0.764576    0.515440    0.013326    0.010753   -0.030148   -0.356657
C     0.425994    1.246166   -0.051585    0.006100   -0.015161   -0.184180
O    -2.042892   -1.364003    0.118520    0.006737   -0.022378   -0.279964
O     0.398208    2.466563   -0.335997   -0.019815    0.054351    0.656601
H     2.310786   -1.604619    0.117514   -0.010090    0.028822    0.361493
H    -1.627223    1.046759   -0.092977    0.006420   -0.014766   -0.181569
H     2.571837    0.885696    0.270217    0.035982   -0.104299   -1.256338
11
* Frequency(7)  192.1382
C     1.586767    0.412942    0.115140    0.026422   -0.076139   -0.920973
C     1.411592   -0.965877    0.109323   -0.001946    0.006076    0.079193
N     0.243987   -1.632446    0.045545   -0.022772    0.069657    0.836267
C    -0.900088   -0.885203    0.042543   -0.001851    0.004134    0.055292
N    -0.763486    0.512385   -0.022814    0.010753   -0.030148   -0.356657
C     0.426612    1.244630   -0.070248    0.006100   -0.015161   -0.184180
O    -2.042209   -1.366271    0.090151    0.006737   -0.022378   -0.279964
O     0.396200    2.472070   -0.269464   -0.019815    0.054351    0.656601
H     2.309764   -1.601698    0.154144   -0.010090    0.028822    0.361493
H    -1.626573    1.045263   -0.111375    0.006420   -0.014766   -0.181569
H     2.575483    0.875127    0.142913    0.035982   -0.104299   -1.256338
11
* Frequency(7)  192.1382
C     1.589770    0.404289    0.010476    0.026422   -0.076139   -0.920973
C     1.411370   -0.965186    0.118323   -0.001946    0.006076    0.079193
N     0.241399   -1.624530    0.140582   -0.022772    0.069657    0.836267
C    -0.900298   -0.884733    0.048827   -0.001851    0.004134    0.055292
N    -0.762264    0.508959   -0.063346    0.010753   -0.030148   -0.356657
C     0.427306    1.242907   -0.091179    0.006100   -0.015161   -0.184180
O    -2.041444   -1.368814    0.058335    0.006737   -0.022378   -0.279964
O     0.393949    2.478247   -0.194845   -0.019815    0.054351    0.656601
H     2.308617   -1.598423    0.195226   -0.010090    0.028822    0.361493
H    -1.625843    1.043584   -0.132009    0.006420   -0.014766   -0.181569
H     2.579572    0.863274    0.000136    0.035982   -0.104299   -1.256338
