11
* (null), Energy   -1000.0000000
C     1.589770    0.404289    0.010476    0.140989   -0.371502    0.034711
C     1.411370   -0.965186    0.118323   -0.006153    0.055938   -0.004824
N     0.241399   -1.624530    0.140582    0.209569    0.012058    0.004495
C    -0.900298   -0.884733    0.048827   -0.945278   -0.212567   -0.007718
N    -0.762264    0.508959   -0.063346    0.108487   -0.132832    0.014080
C     0.427306    1.242907   -0.091179   -0.250540    1.266648   -0.111907
O    -2.041444   -1.368814    0.058335    0.478029    0.199329   -0.003640
O     0.393949    2.478247   -0.194845    0.038494   -0.686935    0.058022
H     2.308617   -1.598423    0.195226   -0.025167   -0.048619    0.002974
H    -1.625843    1.043584   -0.132009    0.254503    0.150843   -0.006856
H     2.579572    0.863274    0.000136   -0.204947    0.515414   -0.048084
11
* Frequency(29) 1727.4187
C     1.605793    0.362069    0.014421    0.140989   -0.371502    0.034711
C     1.410671   -0.958829    0.117775   -0.006153    0.055938   -0.004824
N     0.265215   -1.623159    0.141093    0.209569    0.012058    0.004495
C    -1.007724   -0.908891    0.047950   -0.945278   -0.212567   -0.007718
N    -0.749935    0.493863   -0.061746    0.108487   -0.132832    0.014080
C     0.398833    1.386855   -0.103896   -0.250540    1.266648   -0.111907
O    -1.987118   -1.346161    0.057921    0.478029    0.199329   -0.003640
O     0.398323    2.400180   -0.188251    0.038494   -0.686935    0.058022
H     2.305757   -1.603948    0.195564   -0.025167   -0.048619    0.002974
H    -1.596920    1.060727   -0.132789    0.254503    0.150843   -0.006856
H     2.556281    0.921848   -0.005328   -0.204947    0.515414   -0.048084
11
* Frequency(29) 1727.4187
C     1.620079    0.324425    0.017938    0.140989   -0.371502    0.034711
C     1.410048   -0.953161    0.117286   -0.006153    0.055938   -0.004824
N     0.286451   -1.621938    0.141549    0.209569    0.012058    0.004495
C    -1.103509   -0.930430    0.047168   -0.945278   -0.212567   -0.007718
N    -0.738942    0.480403   -0.060319    0.108487   -0.132832    0.014080
C     0.373446    1.515204   -0.115236   -0.250540    1.266648   -0.111907
O    -1.938680   -1.325963    0.057552    0.478029    0.199329   -0.003640
O     0.402224    2.330573   -0.182372    0.038494   -0.686935    0.058022
H     2.303207   -1.608874    0.195865   -0.025167   -0.048619    0.002974
H    -1.571131    1.076012   -0.133483    0.254503    0.150843   -0.006856
H     2.535514    0.974075   -0.010201   -0.204947    0.515414   -0.048084
11
* Frequency(29) 1727.4187
C     1.631081    0.295436    0.020646    0.140989   -0.371502    0.034711
C     1.409568   -0.948796    0.116909   -0.006153    0.055938   -0.004824
N     0.302805   -1.620997    0.141899    0.209569    0.012058    0.004495
C    -1.177272   -0.947017    0.046565   -0.945278   -0.212567   -0.007718
N    -0.730477    0.470038   -0.059221    0.108487   -0.132832    0.014080
C     0.353895    1.614045   -0.123968   -0.250540    1.266648   -0.111907
O    -1.901377   -1.310409    0.057268    0.478029    0.199329   -0.003640
O     0.405228    2.276969   -0.177844    0.038494   -0.686935    0.058022
H     2.301243   -1.612668    0.196097   -0.025167   -0.048619    0.002974
H    -1.551272    1.087783   -0.134018    0.254503    0.150843   -0.006856
H     2.519521    1.014295   -0.013953   -0.204947    0.515414   -0.048084
11
* Frequency(29) 1727.4187
C     1.637606    0.278242    0.022253    0.140989   -0.371502    0.034711
C     1.409283   -0.946207    0.116686   -0.006153    0.055938   -0.004824
N     0.312504   -1.620439    0.142107    0.209569    0.012058    0.004495
C    -1.221022   -0.956855    0.046208   -0.945278   -0.212567   -0.007718
N    -0.725456    0.463890   -0.058569    0.108487   -0.132832    0.014080
C     0.342300    1.672668   -0.129148   -0.250540    1.266648   -0.111907
O    -1.879253   -1.301184    0.057100    0.478029    0.199329   -0.003640
O     0.407009    2.245176   -0.175159    0.038494   -0.686935    0.058022
H     2.300079   -1.614918    0.196235   -0.025167   -0.048619    0.002974
H    -1.539493    1.094764   -0.134335    0.254503    0.150843   -0.006856
H     2.510036    1.038149   -0.016178   -0.204947    0.515414   -0.048084
11
* Frequency(29) 1727.4187
C     1.638948    0.274707    0.022583    0.140989   -0.371502    0.034711
C     1.409224   -0.945675    0.116640   -0.006153    0.055938   -0.004824
N     0.314498   -1.620324    0.142150    0.209569    0.012058    0.004495
C    -1.230015   -0.958878    0.046135   -0.945278   -0.212567   -0.007718
N    -0.724424    0.462626   -0.058435    0.108487   -0.132832    0.014080
C     0.339916    1.684720   -0.130212   -0.250540    1.266648   -0.111907
O    -1.874705   -1.299287    0.057065    0.478029    0.199329   -0.003640
O     0.407375    2.238641   -0.174606    0.038494   -0.686935    0.058022
H     2.299839   -1.615381    0.196263   -0.025167   -0.048619    0.002974
H    -1.537071    1.096199   -0.134401    0.254503    0.150843   -0.006856
H     2.508086    1.043053   -0.016636   -0.204947    0.515414   -0.048084
11
* Frequency(29) 1727.4187
C     1.634960    0.285215    0.021601    0.140989   -0.371502    0.034711
C     1.409398   -0.947257    0.116777   -0.006153    0.055938   -0.004824
N     0.308570   -1.620665    0.142023    0.209569    0.012058    0.004495
C    -1.203279   -0.952866    0.046353   -0.945278   -0.212567   -0.007718
N    -0.727492    0.466383   -0.058833    0.108487   -0.132832    0.014080
C     0.347003    1.648894   -0.127047   -0.250540    1.266648   -0.111907
O    -1.888225   -1.304925    0.057168    0.478029    0.199329   -0.003640
O     0.406287    2.258070   -0.176248    0.038494   -0.686935    0.058022
H     2.300551   -1.614006    0.196179   -0.025167   -0.048619    0.002974
H    -1.544270    1.091933   -0.134207    0.254503    0.150843   -0.006856
H     2.513883    1.028475   -0.015276   -0.204947    0.515414   -0.048084
11
* Frequency(29) 1727.4187
C     1.626075    0.308626    0.019414    0.140989   -0.371502    0.034711
C     1.409786   -0.950782    0.117081   -0.006153    0.055938   -0.004824
N     0.295364   -1.621425    0.141740    0.209569    0.012058    0.004495
C    -1.143710   -0.939470    0.046839   -0.945278   -0.212567   -0.007718
N    -0.734329    0.474754   -0.059721    0.108487   -0.132832    0.014080
C     0.362791    1.569073   -0.119995   -0.250540    1.266648   -0.111907
O    -1.918349   -1.317486    0.057398    0.478029    0.199329   -0.003640
O     0.403861    2.301359   -0.179904    0.038494   -0.686935    0.058022
H     2.302137   -1.610942    0.195992   -0.025167   -0.048619    0.002974
H    -1.560308    1.082427   -0.133775    0.254503    0.150843   -0.006856
H     2.526798    0.995995   -0.012246   -0.204947    0.515414   -0.048084
11
* Frequency(29) 1727.4187
C     1.613256    0.342403    0.016258    0.140989   -0.371502    0.034711
C     1.410345   -0.955868    0.117519   -0.006153    0.055938   -0.004824
N     0.276309   -1.622521    0.141331    0.209569    0.012058    0.004495
C    -1.057764   -0.920143    0.047541   -0.945278   -0.212567   -0.007718
N    -0.744192    0.486831   -0.061001    0.108487   -0.132832    0.014080
C     0.385570    1.453907   -0.109820   -0.250540    1.266648   -0.111907
O    -1.961813   -1.335609    0.057729    0.478029    0.199329   -0.003640
O     0.400361    2.363816   -0.185179    0.038494   -0.686935    0.058022
H     2.304425   -1.606522    0.195721   -0.025167   -0.048619    0.002974
H    -1.583448    1.068712   -0.133151    0.254503    0.150843   -0.006856
H     2.545432    0.949133   -0.007874   -0.204947    0.515414   -0.048084
11
* Frequency(29) 1727.4187
C     1.597892    0.382887    0.012475    0.140989   -0.371502    0.034711
C     1.411016   -0.961964    0.118045   -0.006153    0.055938   -0.004824
N     0.253472   -1.623835    0.140841    0.209569    0.012058    0.004495
C    -0.954754   -0.896979    0.048382   -0.945278   -0.212567   -0.007718
N    -0.756015    0.501307   -0.062535    0.108487   -0.132832    0.014080
C     0.412873    1.315876   -0.097625   -0.250540    1.266648   -0.111907
O    -2.013905   -1.357331    0.058125    0.478029    0.199329   -0.003640
O     0.396166    2.438674   -0.191502    0.038494   -0.686935    0.058022
H     2.307168   -1.601223    0.195397   -0.025167   -0.048619    0.002974
H    -1.611182    1.052274   -0.132404    0.254503    0.150843   -0.006856
H     2.567766    0.892966   -0.002634   -0.204947    0.515414   -0.048084
11
* Frequency(29) 1727.4187
C     1.581648    0.425690    0.008476    0.140989   -0.371502    0.034711
C     1.411725   -0.968409    0.118601   -0.006153    0.055938   -0.004824
N     0.229326   -1.625224    0.140323    0.209569    0.012058    0.004495
C    -0.845842   -0.872488    0.049271   -0.945278   -0.212567   -0.007718
N    -0.768514    0.516611   -0.064157    0.108487   -0.132832    0.014080
C     0.441739    1.169938   -0.084732   -0.250540    1.266648   -0.111907
O    -2.068982   -1.380297    0.058545    0.478029    0.199329   -0.003640
O     0.391731    2.517820   -0.198187    0.038494   -0.686935    0.058022
H     2.310067   -1.595622    0.195055   -0.025167   -0.048619    0.002974
H    -1.640504    1.034895   -0.131615    0.254503    0.150843   -0.006856
H     2.591379    0.833582    0.002906   -0.204947    0.515414   -0.048084
11
* Frequency(29) 1727.4187
C     1.566284    0.466174    0.004694    0.140989   -0.371502    0.034711
C     1.412395   -0.974505    0.119126   -0.006153    0.055938   -0.004824
N     0.206489   -1.626538    0.139834    0.209569    0.012058    0.004495
C    -0.742832   -0.849324    0.050113   -0.945278   -0.212567   -0.007718
N    -0.780336    0.531086   -0.065692    0.108487   -0.132832    0.014080
C     0.469041    1.031907   -0.072537   -0.250540    1.266648   -0.111907
O    -2.121075   -1.402018    0.058941    0.478029    0.199329   -0.003640
O     0.387536    2.592678   -0.204510    0.038494   -0.686935    0.058022
H     2.312810   -1.590324    0.194730   -0.025167   -0.048619    0.002974
H    -1.668238    1.018457   -0.130867    0.254503    0.150843   -0.006856
H     2.613713    0.777416    0.008146   -0.204947    0.515414   -0.048084
11
* Frequency(29) 1727.4187
C     1.553465    0.499952    0.001538    0.140989   -0.371502    0.034711
C     1.412955   -0.979591    0.119565   -0.006153    0.055938   -0.004824
N     0.187434   -1.627635    0.139425    0.209569    0.012058    0.004495
C    -0.656886   -0.829997    0.050814   -0.945278   -0.212567   -0.007718
N    -0.790200    0.543163   -0.066972    0.108487   -0.132832    0.014080
C     0.491821    0.916741   -0.062362   -0.250540    1.266648   -0.111907
O    -2.164538   -1.420142    0.059272    0.478029    0.199329   -0.003640
O     0.384036    2.655135   -0.209786    0.038494   -0.686935    0.058022
H     2.315098   -1.585903    0.194460   -0.025167   -0.048619    0.002974
H    -1.691378    1.004742   -0.130244    0.254503    0.150843   -0.006856
H     2.632347    0.730553    0.012518   -0.204947    0.515414   -0.048084
11
* Frequency(29) 1727.4187
C     1.544580    0.523363   -0.000650    0.140989   -0.371502    0.034711
C     1.413342   -0.983116    0.119869   -0.006153    0.055938   -0.004824
N     0.174228   -1.628395    0.139142    0.209569    0.012058    0.004495
C    -0.597317   -0.816601    0.051301   -0.945278   -0.212567   -0.007718
N    -0.797037    0.551534   -0.067859    0.108487   -0.132832    0.014080
C     0.507609    0.836920   -0.055310   -0.250540    1.266648   -0.111907
O    -2.194662   -1.432703    0.059502    0.478029    0.199329   -0.003640
O     0.381611    2.698424   -0.213442    0.038494   -0.686935    0.058022
H     2.316684   -1.582839    0.194273   -0.025167   -0.048619    0.002974
H    -1.707416    0.995236   -0.129812    0.254503    0.150843   -0.006856
H     2.645262    0.698073    0.015548   -0.204947    0.515414   -0.048084
11
* Frequency(29) 1727.4187
C     1.540592    0.533870   -0.001632    0.140989   -0.371502    0.034711
C     1.413516   -0.984698    0.120006   -0.006153    0.055938   -0.004824
N     0.168300   -1.628736    0.139014    0.209569    0.012058    0.004495
C    -0.570581   -0.810589    0.051519   -0.945278   -0.212567   -0.007718
N    -0.800105    0.555291   -0.068257    0.108487   -0.132832    0.014080
C     0.514695    0.801095   -0.052145   -0.250540    1.266648   -0.111907
O    -2.208182   -1.438341    0.059605    0.478029    0.199329   -0.003640
O     0.380522    2.717853   -0.215083    0.038494   -0.686935    0.058022
H     2.317396   -1.581464    0.194189   -0.025167   -0.048619    0.002974
H    -1.714615    0.990970   -0.129618    0.254503    0.150843   -0.006856
H     2.651059    0.683495    0.016908   -0.204947    0.515414   -0.048084
11
* Frequency(29) 1727.4187
C     1.541934    0.530336   -0.001301    0.140989   -0.371502    0.034711
C     1.413458   -0.984166    0.119960   -0.006153    0.055938   -0.004824
N     0.170294   -1.628621    0.139057    0.209569    0.012058    0.004495
C    -0.579574   -0.812611    0.051446   -0.945278   -0.212567   -0.007718
N    -0.799073    0.554027   -0.068123    0.108487   -0.132832    0.014080
C     0.512311    0.813146   -0.053210   -0.250540    1.266648   -0.111907
O    -2.203634   -1.436444    0.059570    0.478029    0.199329   -0.003640
O     0.380888    2.711317   -0.214531    0.038494   -0.686935    0.058022
H     2.317156   -1.581927    0.194217   -0.025167   -0.048619    0.002974
H    -1.712193    0.992405   -0.129683    0.254503    0.150843   -0.006856
H     2.649109    0.688399    0.016451   -0.204947    0.515414   -0.048084
11
* Frequency(29) 1727.4187
C     1.548459    0.513142    0.000305    0.140989   -0.371502    0.034711
C     1.413173   -0.981577    0.119736   -0.006153    0.055938   -0.004824
N     0.179993   -1.628063    0.139265    0.209569    0.012058    0.004495
C    -0.623324   -0.822449    0.051088   -0.945278   -0.212567   -0.007718
N    -0.794052    0.547880   -0.067472    0.108487   -0.132832    0.014080
C     0.500716    0.871769   -0.058389   -0.250540    1.266648   -0.111907
O    -2.181510   -1.427219    0.059402    0.478029    0.199329   -0.003640
O     0.382670    2.679524   -0.211846    0.038494   -0.686935    0.058022
H     2.315991   -1.584177    0.194354   -0.025167   -0.048619    0.002974
H    -1.700414    0.999386   -0.130001    0.254503    0.150843   -0.006856
H     2.639624    0.712254    0.014225   -0.204947    0.515414   -0.048084
11
* Frequency(29) 1727.4187
C     1.559461    0.484152    0.003014    0.140989   -0.371502    0.034711
C     1.412693   -0.977212    0.119360   -0.006153    0.055938   -0.004824
N     0.196347   -1.627122    0.139616    0.209569    0.012058    0.004495
C    -0.697087   -0.839037    0.050486   -0.945278   -0.212567   -0.007718
N    -0.785586    0.537514   -0.066373    0.108487   -0.132832    0.014080
C     0.481165    0.970610   -0.067122   -0.250540    1.266648   -0.111907
O    -2.144208   -1.411664    0.059118    0.478029    0.199329   -0.003640
O     0.385673    2.625920   -0.207318    0.038494   -0.686935    0.058022
H     2.314027   -1.587971    0.194587   -0.025167   -0.048619    0.002974
H    -1.680555    1.011157   -0.130536    0.254503    0.150843   -0.006856
H     2.623631    0.752473    0.010473   -0.204947    0.515414   -0.048084
11
* Frequency(29) 1727.4187
C     1.573747    0.446508    0.006531    0.140989   -0.371502    0.034711
C     1.412070   -0.971543    0.118871   -0.006153    0.055938   -0.004824
N     0.217582   -1.625900    0.140071    0.209569    0.012058    0.004495
C    -0.792872   -0.860576    0.049704   -0.945278   -0.212567   -0.007718
N    -0.774593    0.524054   -0.064946    0.108487   -0.132832    0.014080
C     0.455778    1.098959   -0.078461   -0.250540    1.266648   -0.111907
O    -2.095769   -1.391466    0.058749    0.478029    0.199329   -0.003640
O     0.389574    2.556313   -0.201439    0.038494   -0.686935    0.058022
H     2.311477   -1.592897    0.194888   -0.025167   -0.048619    0.002974
H    -1.654766    1.026442   -0.131230    0.254503    0.150843   -0.006856
H     2.602864    0.804700    0.005601   -0.204947    0.515414   -0.048084
11
* Frequency(29) 1727.4187
C     1.589770    0.404289    0.010476    0.140989   -0.371502    0.034711
C     1.411370   -0.965186    0.118323   -0.006153    0.055938   -0.004824
N     0.241399   -1.624530    0.140582    0.209569    0.012058    0.004495
C    -0.900298   -0.884733    0.048827   -0.945278   -0.212567   -0.007718
N    -0.762264    0.508959   -0.063346    0.108487   -0.132832    0.014080
C     0.427306    1.242907   -0.091179   -0.250540    1.266648   -0.111907
O    -2.041444   -1.368814    0.058335    0.478029    0.199329   -0.003640
O     0.393949    2.478247   -0.194845    0.038494   -0.686935    0.058022
H     2.308617   -1.598423    0.195226   -0.025167   -0.048619    0.002974
H    -1.625843    1.043584   -0.132009    0.254503    0.150843   -0.006856
H     2.579572    0.863274    0.000136   -0.204947    0.515414   -0.048084
