11
* (null), Energy   -1000.0000000
C     1.356566    0.572472   -0.019574   -0.247861    0.141773   -0.018476
C     1.179217   -0.796685    0.088575   -0.028646   -0.168889    0.013013
N     0.008210   -1.454494    0.110838    0.278916   -0.179983    0.022791
C    -1.131376   -0.714764    0.018532   -0.279497    0.710741   -0.067111
N    -0.995238    0.677642   -0.092617   -0.235315   -0.399299    0.026795
C     0.194158    1.409660   -0.120689    0.613167    0.065423    0.011449
O    -2.273001   -1.200862    0.028059   -0.051716   -0.046407    0.002649
O     0.161758    2.645985   -0.224814   -0.015665   -0.013577    0.000665
H     2.075560   -1.430341    0.165515    0.692307    0.793601   -0.047295
H    -1.858608    1.212888   -0.161920   -0.593418   -0.976411    0.063171
H     2.345944    1.032379   -0.030255   -0.316440    0.259074   -0.029167
11
* Frequency(22) 1177.0819
C     1.328398    0.588583   -0.021673   -0.247861    0.141773   -0.018476
C     1.175962   -0.815878    0.090054   -0.028646   -0.168889    0.013013
N     0.039907   -1.474948    0.113428    0.278916   -0.179983    0.022791
C    -1.163139   -0.633992    0.010905   -0.279497    0.710741   -0.067111
N    -1.021981    0.632264   -0.089572   -0.235315   -0.399299    0.026795
C     0.263841    1.417095   -0.119388    0.613167    0.065423    0.011449
O    -2.278878   -1.206136    0.028360   -0.051716   -0.046407    0.002649
O     0.159978    2.644443   -0.224738   -0.015665   -0.013577    0.000665
H     2.154237   -1.340152    0.160140    0.692307    0.793601   -0.047295
H    -1.926047    1.101924   -0.154741   -0.593418   -0.976411    0.063171
H     2.309983    1.061822   -0.033569   -0.316440    0.259074   -0.029167
11
* Frequency(22) 1177.0819
C     1.303283    0.602949   -0.023546   -0.247861    0.141773   -0.018476
C     1.173059   -0.832991    0.091373   -0.028646   -0.168889    0.013013
N     0.068170   -1.493186    0.115737    0.278916   -0.179983    0.022791
C    -1.191460   -0.561973    0.004104   -0.279497    0.710741   -0.067111
N    -1.045825    0.591803   -0.086857   -0.235315   -0.399299    0.026795
C     0.325973    1.423724   -0.118228    0.613167    0.065423    0.011449
O    -2.284119   -1.210839    0.028628   -0.051716   -0.046407    0.002649
O     0.158391    2.643067   -0.224671   -0.015665   -0.013577    0.000665
H     2.224388   -1.259737    0.155347    0.692307    0.793601   -0.047295
H    -1.986178    1.002984   -0.148340   -0.593418   -0.976411    0.063171
H     2.277918    1.088074   -0.036525   -0.316440    0.259074   -0.029167
11
* Frequency(22) 1177.0819
C     1.283941    0.614012   -0.024987   -0.247861    0.141773   -0.018476
C     1.170824   -0.846170    0.092388   -0.028646   -0.168889    0.013013
N     0.089935   -1.507231    0.117516    0.278916   -0.179983    0.022791
C    -1.213271   -0.506511   -0.001132   -0.279497    0.710741   -0.067111
N    -1.064188    0.560645   -0.084766   -0.235315   -0.399299    0.026795
C     0.373821    1.428829   -0.117334    0.613167    0.065423    0.011449
O    -2.288154   -1.214460    0.028835   -0.051716   -0.046407    0.002649
O     0.157168    2.642007   -0.224619   -0.015665   -0.013577    0.000665
H     2.278411   -1.197809    0.151657    0.692307    0.793601   -0.047295
H    -2.032484    0.926791   -0.143411   -0.593418   -0.976411    0.063171
H     2.253225    1.108290   -0.038801   -0.316440    0.259074   -0.029167
11
* Frequency(22) 1177.0819
C     1.272470    0.620574   -0.025842   -0.247861    0.141773   -0.018476
C     1.169498   -0.853987    0.092991   -0.028646   -0.168889    0.013013
N     0.102843   -1.515561    0.118571    0.278916   -0.179983    0.022791
C    -1.226206   -0.473617   -0.004238   -0.279497    0.710741   -0.067111
N    -1.075078    0.542164   -0.083526   -0.235315   -0.399299    0.026795
C     0.402199    1.431857   -0.116804    0.613167    0.065423    0.011449
O    -2.290548   -1.216608    0.028957   -0.051716   -0.046407    0.002649
O     0.156443    2.641379   -0.224588   -0.015665   -0.013577    0.000665
H     2.310452   -1.161080    0.149468    0.692307    0.793601   -0.047295
H    -2.059949    0.881601   -0.140487   -0.593418   -0.976411    0.063171
H     2.238579    1.120280   -0.040151   -0.316440    0.259074   -0.029167
11
* Frequency(22) 1177.0819
C     1.270112    0.621923   -0.026018   -0.247861    0.141773   -0.018476
C     1.169225   -0.855594    0.093114   -0.028646   -0.168889    0.013013
N     0.105497   -1.517273    0.118788    0.278916   -0.179983    0.022791
C    -1.228866   -0.466854   -0.004877   -0.279497    0.710741   -0.067111
N    -1.077317    0.538365   -0.083271   -0.235315   -0.399299    0.026795
C     0.408033    1.432479   -0.116695    0.613167    0.065423    0.011449
O    -2.291040   -1.217049    0.028983   -0.051716   -0.046407    0.002649
O     0.156294    2.641250   -0.224582   -0.015665   -0.013577    0.000665
H     2.317039   -1.153529    0.149018    0.692307    0.793601   -0.047295
H    -2.065595    0.872311   -0.139886   -0.593418   -0.976411    0.063171
H     2.235569    1.122745   -0.040428   -0.316440    0.259074   -0.029167
11
* Frequency(22) 1177.0819
C     1.277122    0.617913   -0.025496   -0.247861    0.141773   -0.018476
C     1.170036   -0.850817    0.092746   -0.028646   -0.168889    0.013013
N     0.097608   -1.512183    0.118143    0.278916   -0.179983    0.022791
C    -1.220960   -0.486957   -0.002979   -0.279497    0.710741   -0.067111
N    -1.070662    0.549659   -0.084029   -0.235315   -0.399299    0.026795
C     0.390690    1.430629   -0.117019    0.613167    0.065423    0.011449
O    -2.289577   -1.215737    0.028908   -0.051716   -0.046407    0.002649
O     0.156737    2.641634   -0.224601   -0.015665   -0.013577    0.000665
H     2.297458   -1.175975    0.150356    0.692307    0.793601   -0.047295
H    -2.048811    0.899928   -0.141673   -0.593418   -0.976411    0.063171
H     2.244519    1.115418   -0.039603   -0.316440    0.259074   -0.029167
11
* Frequency(22) 1177.0819
C     1.292742    0.608979   -0.024331   -0.247861    0.141773   -0.018476
C     1.171841   -0.840174    0.091926   -0.028646   -0.168889    0.013013
N     0.080032   -1.500841    0.116707    0.278916   -0.179983    0.022791
C    -1.203347   -0.531746    0.001250   -0.279497    0.710741   -0.067111
N    -1.055833    0.574822   -0.085717   -0.235315   -0.399299    0.026795
C     0.352050    1.426506   -0.117741    0.613167    0.065423    0.011449
O    -2.286318   -1.212812    0.028741   -0.051716   -0.046407    0.002649
O     0.157724    2.642489   -0.224643   -0.015665   -0.013577    0.000665
H     2.253831   -1.225986    0.153336    0.692307    0.793601   -0.047295
H    -2.011415    0.961459   -0.145653   -0.593418   -0.976411    0.063171
H     2.264460    1.099092   -0.037765   -0.316440    0.259074   -0.029167
11
* Frequency(22) 1177.0819
C     1.315277    0.596088   -0.022651   -0.247861    0.141773   -0.018476
C     1.174445   -0.824818    0.090743   -0.028646   -0.168889    0.013013
N     0.054672   -1.484476    0.114635    0.278916   -0.179983    0.022791
C    -1.177935   -0.596368    0.007352   -0.279497    0.710741   -0.067111
N    -1.034437    0.611127   -0.088153   -0.235315   -0.399299    0.026795
C     0.296300    1.420558   -0.118782    0.613167    0.065423    0.011449
O    -2.281616   -1.208593    0.028500   -0.051716   -0.046407    0.002649
O     0.159149    2.643724   -0.224703   -0.015665   -0.013577    0.000665
H     2.190885   -1.298141    0.157636    0.692307    0.793601   -0.047295
H    -1.957461    1.050236   -0.151397   -0.593418   -0.976411    0.063171
H     2.293231    1.075536   -0.035113   -0.316440    0.259074   -0.029167
11
* Frequency(22) 1177.0819
C     1.342288    0.580639   -0.020638   -0.247861    0.141773   -0.018476
C     1.177567   -0.806414    0.089325   -0.028646   -0.168889    0.013013
N     0.024278   -1.464863    0.112151    0.278916   -0.179983    0.022791
C    -1.147477   -0.673820    0.014666   -0.279497    0.710741   -0.067111
N    -1.008794    0.654640   -0.091073   -0.235315   -0.399299    0.026795
C     0.229481    1.413428   -0.120029    0.613167    0.065423    0.011449
O    -2.275980   -1.203536    0.028211   -0.051716   -0.046407    0.002649
O     0.160856    2.645203   -0.224776   -0.015665   -0.013577    0.000665
H     2.115442   -1.384623    0.162790    0.692307    0.793601   -0.047295
H    -1.892794    1.156638   -0.158281   -0.593418   -0.976411    0.063171
H     2.327715    1.047304   -0.031935   -0.316440    0.259074   -0.029167
11
* Frequency(22) 1177.0819
C     1.370845    0.564305   -0.018509   -0.247861    0.141773   -0.018476
C     1.180867   -0.786955    0.087826   -0.028646   -0.168889    0.013013
N    -0.007858   -1.444126    0.109525    0.278916   -0.179983    0.022791
C    -1.115274   -0.755709    0.022398   -0.279497    0.710741   -0.067111
N    -0.981682    0.700645   -0.094161   -0.235315   -0.399299    0.026795
C     0.158834    1.405891   -0.121348    0.613167    0.065423    0.011449
O    -2.270022   -1.198189    0.027906   -0.051716   -0.046407    0.002649
O     0.162661    2.646768   -0.224852   -0.015665   -0.013577    0.000665
H     2.035677   -1.476059    0.168239    0.692307    0.793601   -0.047295
H    -1.824422    1.269137   -0.165559   -0.593418   -0.976411    0.063171
H     2.364174    1.017455   -0.028574   -0.316440    0.259074   -0.029167
11
* Frequency(22) 1177.0819
C     1.397856    0.548855   -0.016496   -0.247861    0.141773   -0.018476
C     1.183989   -0.768551    0.086407   -0.028646   -0.168889    0.013013
N    -0.038252   -1.424512    0.107042    0.278916   -0.179983    0.022791
C    -1.084817   -0.833161    0.029711   -0.279497    0.710741   -0.067111
N    -0.956039    0.744158   -0.097080   -0.235315   -0.399299    0.026795
C     0.092015    1.398761   -0.122596    0.613167    0.065423    0.011449
O    -2.264386   -1.193132    0.027618   -0.051716   -0.046407    0.002649
O     0.164368    2.648247   -0.224925   -0.015665   -0.013577    0.000665
H     1.960234   -1.562540    0.173393    0.692307    0.793601   -0.047295
H    -1.759756    1.375540   -0.172443   -0.593418   -0.976411    0.063171
H     2.398657    0.989222   -0.025396   -0.316440    0.259074   -0.029167
11
* Frequency(22) 1177.0819
C     1.420391    0.535965   -0.014816   -0.247861    0.141773   -0.018476
C     1.186594   -0.753195    0.085224   -0.028646   -0.168889    0.013013
N    -0.063612   -1.408148    0.104969    0.278916   -0.179983    0.022791
C    -1.059404   -0.897782    0.035813   -0.279497    0.710741   -0.067111
N    -0.934644    0.780463   -0.099517   -0.235315   -0.399299    0.026795
C     0.036265    1.392813   -0.123637    0.613167    0.065423    0.011449
O    -2.259684   -1.188912    0.027377   -0.051716   -0.046407    0.002649
O     0.165792    2.649482   -0.224985   -0.015665   -0.013577    0.000665
H     1.897288   -1.634696    0.177693    0.692307    0.793601   -0.047295
H    -1.705801    1.464317   -0.178187   -0.593418   -0.976411    0.063171
H     2.427429    0.965667   -0.022744   -0.316440    0.259074   -0.029167
11
* Frequency(22) 1177.0819
C     1.436011    0.527031   -0.013652   -0.247861    0.141773   -0.018476
C     1.188399   -0.742552    0.084404   -0.028646   -0.168889    0.013013
N    -0.081188   -1.396806    0.103533    0.278916   -0.179983    0.022791
C    -1.041791   -0.942571    0.040042   -0.279497    0.710741   -0.067111
N    -0.919815    0.805626   -0.101205   -0.235315   -0.399299    0.026795
C    -0.002375    1.388690   -0.124359    0.613167    0.065423    0.011449
O    -2.256425   -1.185988    0.027210   -0.051716   -0.046407    0.002649
O     0.166779    2.650337   -0.225027   -0.015665   -0.013577    0.000665
H     1.853661   -1.684706    0.180673    0.692307    0.793601   -0.047295
H    -1.668405    1.525848   -0.182168   -0.593418   -0.976411    0.063171
H     2.447370    0.949341   -0.020906   -0.316440    0.259074   -0.029167
11
* Frequency(22) 1177.0819
C     1.443021    0.523021   -0.013129   -0.247861    0.141773   -0.018476
C     1.189209   -0.737775    0.084036   -0.028646   -0.168889    0.013013
N    -0.089077   -1.391715    0.102889    0.278916   -0.179983    0.022791
C    -1.033886   -0.962674    0.041940   -0.279497    0.710741   -0.067111
N    -0.913159    0.816920   -0.101963   -0.235315   -0.399299    0.026795
C    -0.019718    1.386840   -0.124682    0.613167    0.065423    0.011449
O    -2.254962   -1.184675    0.027135   -0.051716   -0.046407    0.002649
O     0.167222    2.650721   -0.225046   -0.015665   -0.013577    0.000665
H     1.834080   -1.707152    0.182011    0.692307    0.793601   -0.047295
H    -1.651621    1.553464   -0.183955   -0.593418   -0.976411    0.063171
H     2.456320    0.942013   -0.020081   -0.316440    0.259074   -0.029167
11
* Frequency(22) 1177.0819
C     1.440663    0.524370   -0.013305   -0.247861    0.141773   -0.018476
C     1.188936   -0.739382    0.084160   -0.028646   -0.168889    0.013013
N    -0.086423   -1.393428    0.103105    0.278916   -0.179983    0.022791
C    -1.036545   -0.955912    0.041302   -0.279497    0.710741   -0.067111
N    -0.915398    0.813121   -0.101708   -0.235315   -0.399299    0.026795
C    -0.013884    1.387462   -0.124573    0.613167    0.065423    0.011449
O    -2.255454   -1.185117    0.027160   -0.051716   -0.046407    0.002649
O     0.167073    2.650592   -0.225040   -0.015665   -0.013577    0.000665
H     1.840667   -1.699602    0.181561    0.692307    0.793601   -0.047295
H    -1.657267    1.544174   -0.183354   -0.593418   -0.976411    0.063171
H     2.453309    0.944478   -0.020358   -0.316440    0.259074   -0.029167
11
* Frequency(22) 1177.0819
C     1.429192    0.530931   -0.014160   -0.247861    0.141773   -0.018476
C     1.187611   -0.747199    0.084762   -0.028646   -0.168889    0.013013
N    -0.073515   -1.401758    0.104160    0.278916   -0.179983    0.022791
C    -1.049481   -0.923017    0.038196   -0.279497    0.710741   -0.067111
N    -0.926289    0.794640   -0.100468   -0.235315   -0.399299    0.026795
C     0.014494    1.390490   -0.124044    0.613167    0.065423    0.011449
O    -2.257848   -1.187265    0.027283   -0.051716   -0.046407    0.002649
O     0.166348    2.649964   -0.225009   -0.015665   -0.013577    0.000665
H     1.872708   -1.662872    0.179372    0.692307    0.793601   -0.047295
H    -1.684732    1.498984   -0.180430   -0.593418   -0.976411    0.063171
H     2.438664    0.956468   -0.021708   -0.316440    0.259074   -0.029167
11
* Frequency(22) 1177.0819
C     1.409850    0.541994   -0.015602   -0.247861    0.141773   -0.018476
C     1.185375   -0.760378    0.085778   -0.028646   -0.168889    0.013013
N    -0.051750   -1.415802    0.105939    0.278916   -0.179983    0.022791
C    -1.071291   -0.867555    0.032959   -0.279497    0.710741   -0.067111
N    -0.944652    0.763482   -0.098377   -0.235315   -0.399299    0.026795
C     0.062342    1.395595   -0.123150    0.613167    0.065423    0.011449
O    -2.261883   -1.190886    0.027489   -0.051716   -0.046407    0.002649
O     0.165126    2.648904   -0.224957   -0.015665   -0.013577    0.000665
H     1.926731   -1.600945    0.175682    0.692307    0.793601   -0.047295
H    -1.731038    1.422791   -0.175500   -0.593418   -0.976411    0.063171
H     2.413971    0.976685   -0.023984   -0.316440    0.259074   -0.029167
11
* Frequency(22) 1177.0819
C     1.384735    0.556360   -0.017474   -0.247861    0.141773   -0.018476
C     1.182473   -0.777491    0.087096   -0.028646   -0.168889    0.013013
N    -0.023487   -1.434040    0.108248    0.278916   -0.179983    0.022791
C    -1.099612   -0.795536    0.026158   -0.279497    0.710741   -0.067111
N    -0.968496    0.723021   -0.095662   -0.235315   -0.399299    0.026795
C     0.124474    1.402225   -0.121990    0.613167    0.065423    0.011449
O    -2.267124   -1.195589    0.027758   -0.051716   -0.046407    0.002649
O     0.163538    2.647528   -0.224890   -0.015665   -0.013577    0.000665
H     1.996882   -1.520529    0.170889    0.692307    0.793601   -0.047295
H    -1.791169    1.323852   -0.169099   -0.593418   -0.976411    0.063171
H     2.381906    1.002937   -0.026940   -0.316440    0.259074   -0.029167
11
* Frequency(22) 1177.0819
C     1.356566    0.572472   -0.019574   -0.247861    0.141773   -0.018476
C     1.179217   -0.796685    0.088575   -0.028646   -0.168889    0.013013
N     0.008210   -1.454494    0.110838    0.278916   -0.179983    0.022791
C    -1.131376   -0.714764    0.018532   -0.279497    0.710741   -0.067111
N    -0.995238    0.677642   -0.092617   -0.235315   -0.399299    0.026795
C     0.194158    1.409660   -0.120689    0.613167    0.065423    0.011449
O    -2.273001   -1.200862    0.028059   -0.051716   -0.046407    0.002649
O     0.161758    2.645985   -0.224814   -0.015665   -0.013577    0.000665
H     2.075560   -1.430341    0.165515    0.692307    0.793601   -0.047295
H    -1.858608    1.212888   -0.161920   -0.593418   -0.976411    0.063171
H     2.345944    1.032379   -0.030255   -0.316440    0.259074   -0.029167
