11
* (null), Energy   -1000.0000000
C     1.356566    0.572472   -0.019574    0.134064    0.547754   -0.041514
C     1.179217   -0.796685    0.088575   -0.448207   -0.805713    0.054278
N     0.008210   -1.454494    0.110838    0.220507    0.248976   -0.014593
C    -1.131376   -0.714764    0.018532   -0.027298   -0.192637    0.015218
N    -0.995238    0.677642   -0.092617    0.112697    0.176029   -0.011440
C     0.194158    1.409660   -0.120689   -0.192873   -0.002188   -0.005258
O    -2.273001   -1.200862    0.028059   -0.012555    0.021236   -0.002096
O     0.161758    2.645985   -0.224814    0.035784   -0.104801    0.009744
H     2.075560   -1.430341    0.165515    1.031319    1.091084   -0.062181
H    -1.858608    1.212888   -0.161920   -0.152737   -0.250002    0.016157
H     2.345944    1.032379   -0.030255    0.489289   -0.025310    0.015590
11
* Frequency(27) 1588.9010
C     1.371802    0.634721   -0.024291    0.134064    0.547754   -0.041514
C     1.128281   -0.888250    0.094744   -0.448207   -0.805713    0.054278
N     0.033269   -1.426199    0.109180    0.220507    0.248976   -0.014593
C    -1.134478   -0.736656    0.020261   -0.027298   -0.192637    0.015218
N    -0.982431    0.697647   -0.093917    0.112697    0.176029   -0.011440
C     0.172239    1.409411   -0.121286   -0.192873   -0.002188   -0.005258
O    -2.274428   -1.198449    0.027821   -0.012555    0.021236   -0.002096
O     0.165825    2.634075   -0.223707    0.035784   -0.104801    0.009744
H     2.192764   -1.306345    0.158448    1.031319    1.091084   -0.062181
H    -1.875966    1.184476   -0.160084   -0.152737   -0.250002    0.016157
H     2.401550    1.029503   -0.028483    0.489289   -0.025310    0.015590
11
* Frequency(27) 1588.9010
C     1.385387    0.690225   -0.028498    0.134064    0.547754   -0.041514
C     1.082864   -0.969892    0.100244   -0.448207   -0.805713    0.054278
N     0.055613   -1.400971    0.107701    0.220507    0.248976   -0.014593
C    -1.137244   -0.756176    0.021803   -0.027298   -0.192637    0.015218
N    -0.971011    0.715484   -0.095076    0.112697    0.176029   -0.011440
C     0.152695    1.409189   -0.121819   -0.192873   -0.002188   -0.005258
O    -2.275700   -1.196297    0.027608   -0.012555    0.021236   -0.002096
O     0.169451    2.623456   -0.222719    0.035784   -0.104801    0.009744
H     2.297267   -1.195786    0.152147    1.031319    1.091084   -0.062181
H    -1.891443    1.159144   -0.158447   -0.152737   -0.250002    0.016157
H     2.451129    1.026938   -0.026903    0.489289   -0.025310    0.015590
11
* Frequency(27) 1588.9010
C     1.395848    0.732968   -0.031738    0.134064    0.547754   -0.041514
C     1.047889   -1.032765    0.104479   -0.448207   -0.805713    0.054278
N     0.072820   -1.381542    0.106562    0.220507    0.248976   -0.014593
C    -1.139374   -0.771208    0.022991   -0.027298   -0.192637    0.015218
N    -0.962217    0.729220   -0.095969    0.112697    0.176029   -0.011440
C     0.137644    1.409018   -0.122229   -0.192873   -0.002188   -0.005258
O    -2.276680   -1.194640    0.027445   -0.012555    0.021236   -0.002096
O     0.172243    2.615278   -0.221959    0.035784   -0.104801    0.009744
H     2.377744   -1.110644    0.147295    1.031319    1.091084   -0.062181
H    -1.903361    1.139635   -0.157186   -0.152737   -0.250002    0.016157
H     2.489310    1.024963   -0.025687    0.489289   -0.025310    0.015590
11
* Frequency(27) 1588.9010
C     1.402053    0.758319   -0.033659    0.134064    0.547754   -0.041514
C     1.027145   -1.070055    0.106991   -0.448207   -0.805713    0.054278
N     0.083026   -1.370019    0.105887    0.220507    0.248976   -0.014593
C    -1.140638   -0.780124    0.023695   -0.027298   -0.192637    0.015218
N    -0.957001    0.737367   -0.096498    0.112697    0.176029   -0.011440
C     0.128718    1.408917   -0.122473   -0.192873   -0.002188   -0.005258
O    -2.277261   -1.193657    0.027348   -0.012555    0.021236   -0.002096
O     0.173899    2.610427   -0.221508    0.035784   -0.104801    0.009744
H     2.425476   -1.060147    0.144417    1.031319    1.091084   -0.062181
H    -1.910430    1.128065   -0.156438   -0.152737   -0.250002    0.016157
H     2.511955    1.023792   -0.024965    0.489289   -0.025310    0.015590
11
* Frequency(27) 1588.9010
C     1.403328    0.763531   -0.034054    0.134064    0.547754   -0.041514
C     1.022880   -1.077721    0.107508   -0.448207   -0.805713    0.054278
N     0.085124   -1.367650    0.105748    0.220507    0.248976   -0.014593
C    -1.140897   -0.781957    0.023840   -0.027298   -0.192637    0.015218
N    -0.955929    0.739042   -0.096607    0.112697    0.176029   -0.011440
C     0.126883    1.408896   -0.122523   -0.192873   -0.002188   -0.005258
O    -2.277380   -1.193455    0.027328   -0.012555    0.021236   -0.002096
O     0.174240    2.609430   -0.221415    0.035784   -0.104801    0.009744
H     2.435288   -1.049766    0.143825    1.031319    1.091084   -0.062181
H    -1.911883    1.125686   -0.156285   -0.152737   -0.250002    0.016157
H     2.516611    1.023551   -0.024817    0.489289   -0.025310    0.015590
11
* Frequency(27) 1588.9010
C     1.399537    0.748038   -0.032880    0.134064    0.547754   -0.041514
C     1.035557   -1.054932    0.105972   -0.448207   -0.805713    0.054278
N     0.078887   -1.374692    0.106161    0.220507    0.248976   -0.014593
C    -1.140125   -0.776508    0.023409   -0.027298   -0.192637    0.015218
N    -0.959117    0.734063   -0.096284    0.112697    0.176029   -0.011440
C     0.132338    1.408958   -0.122374   -0.192873   -0.002188   -0.005258
O    -2.277025   -1.194056    0.027387   -0.012555    0.021236   -0.002096
O     0.173228    2.612395   -0.221691    0.035784   -0.104801    0.009744
H     2.406118   -1.080626    0.145584    1.031319    1.091084   -0.062181
H    -1.907563    1.132757   -0.156742   -0.152737   -0.250002    0.016157
H     2.502772    1.024267   -0.025258    0.489289   -0.025310    0.015590
11
* Frequency(27) 1588.9010
C     1.391088    0.713520   -0.030264    0.134064    0.547754   -0.041514
C     1.063802   -1.004158    0.102552   -0.448207   -0.805713    0.054278
N     0.064991   -1.390382    0.107080    0.220507    0.248976   -0.014593
C    -1.138405   -0.764369    0.022450   -0.027298   -0.192637    0.015218
N    -0.966218    0.722970   -0.095563    0.112697    0.176029   -0.011440
C     0.144492    1.409096   -0.122043   -0.192873   -0.002188   -0.005258
O    -2.276234   -1.195394    0.027519   -0.012555    0.021236   -0.002096
O     0.170973    2.618999   -0.222305    0.035784   -0.104801    0.009744
H     2.341128   -1.149383    0.149503    1.031319    1.091084   -0.062181
H    -1.897938    1.148511   -0.157760   -0.152737   -0.250002    0.016157
H     2.471938    1.025862   -0.026240    0.489289   -0.025310    0.015590
11
* Frequency(27) 1588.9010
C     1.378899    0.663718   -0.026489    0.134064    0.547754   -0.041514
C     1.104554   -0.930902    0.097617   -0.448207   -0.805713    0.054278
N     0.044942   -1.413019    0.108407    0.220507    0.248976   -0.014593
C    -1.135923   -0.746854    0.021067   -0.027298   -0.192637    0.015218
N    -0.976465    0.706966   -0.094523    0.112697    0.176029   -0.011440
C     0.162029    1.409295   -0.121565   -0.192873   -0.002188   -0.005258
O    -2.275092   -1.197325    0.027710   -0.012555    0.021236   -0.002096
O     0.167719    2.628528   -0.223191    0.035784   -0.104801    0.009744
H     2.247358   -1.248586    0.155156    1.031319    1.091084   -0.062181
H    -1.884051    1.171242   -0.159229   -0.152737   -0.250002    0.016157
H     2.427451    1.028163   -0.027658    0.489289   -0.025310    0.015590
11
* Frequency(27) 1588.9010
C     1.364290    0.604027   -0.021965    0.134064    0.547754   -0.041514
C     1.153397   -0.843100    0.091702   -0.448207   -0.805713    0.054278
N     0.020913   -1.440151    0.109997    0.220507    0.248976   -0.014593
C    -1.132948   -0.725862    0.019408   -0.027298   -0.192637    0.015218
N    -0.988746    0.687783   -0.093276    0.112697    0.176029   -0.011440
C     0.183047    1.409534   -0.120992   -0.192873   -0.002188   -0.005258
O    -2.273724   -1.199639    0.027938   -0.012555    0.021236   -0.002096
O     0.163820    2.639948   -0.224253    0.035784   -0.104801    0.009744
H     2.134972   -1.367485    0.161932    1.031319    1.091084   -0.062181
H    -1.867407    1.198486   -0.160989   -0.152737   -0.250002    0.016157
H     2.374131    1.030921   -0.029357    0.489289   -0.025310    0.015590
11
* Frequency(27) 1588.9010
C     1.348843    0.540917   -0.017182    0.134064    0.547754   -0.041514
C     1.205037   -0.750269    0.085448   -0.448207   -0.805713    0.054278
N    -0.004493   -1.468837    0.111679    0.220507    0.248976   -0.014593
C    -1.129803   -0.703667    0.017655   -0.027298   -0.192637    0.015218
N    -1.001731    0.667502   -0.091958    0.112697    0.176029   -0.011440
C     0.205269    1.409786   -0.120386   -0.192873   -0.002188   -0.005258
O    -2.272278   -1.202086    0.028180   -0.012555    0.021236   -0.002096
O     0.159697    2.652023   -0.225375    0.035784   -0.104801    0.009744
H     2.016147   -1.493196    0.169097    1.031319    1.091084   -0.062181
H    -1.849809    1.227290   -0.162851   -0.152737   -0.250002    0.016157
H     2.317757    1.033837   -0.031153    0.489289   -0.025310    0.015590
11
* Frequency(27) 1588.9010
C     1.334234    0.481226   -0.012658    0.134064    0.547754   -0.041514
C     1.253880   -0.662468    0.079534   -0.448207   -0.805713    0.054278
N    -0.028522   -1.495969    0.113269    0.220507    0.248976   -0.014593
C    -1.126828   -0.682674    0.015997   -0.027298   -0.192637    0.015218
N    -1.014012    0.648319   -0.090711    0.112697    0.176029   -0.011440
C     0.226287    1.410024   -0.119813   -0.192873   -0.002188   -0.005258
O    -2.270910   -1.204400    0.028408   -0.012555    0.021236   -0.002096
O     0.155797    2.663443   -0.226437    0.035784   -0.104801    0.009744
H     1.903761   -1.612095    0.175873    1.031319    1.091084   -0.062181
H    -1.833165    1.254533   -0.164612   -0.152737   -0.250002    0.016157
H     2.264438    1.036595   -0.032852    0.489289   -0.025310    0.015590
11
* Frequency(27) 1588.9010
C     1.322045    0.431423   -0.008884    0.134064    0.547754   -0.041514
C     1.294632   -0.589211    0.074599   -0.448207   -0.805713    0.054278
N    -0.048571   -1.518606    0.114596    0.220507    0.248976   -0.014593
C    -1.124346   -0.665160    0.014613   -0.027298   -0.192637    0.015218
N    -1.024258    0.632315   -0.089671    0.112697    0.176029   -0.011440
C     0.243823    1.410223   -0.119335   -0.192873   -0.002188   -0.005258
O    -2.269768   -1.206331    0.028598   -0.012555    0.021236   -0.002096
O     0.152544    2.672972   -0.227323    0.035784   -0.104801    0.009744
H     1.809991   -1.711298    0.181526    1.031319    1.091084   -0.062181
H    -1.819278    1.277264   -0.166081   -0.152737   -0.250002    0.016157
H     2.219951    1.038897   -0.034269    0.489289   -0.025310    0.015590
11
* Frequency(27) 1588.9010
C     1.313596    0.396905   -0.006268    0.134064    0.547754   -0.041514
C     1.322877   -0.538437    0.071178   -0.448207   -0.805713    0.054278
N    -0.062467   -1.534296    0.115515    0.220507    0.248976   -0.014593
C    -1.122626   -0.653020    0.013654   -0.027298   -0.192637    0.015218
N    -1.031360    0.621222   -0.088950    0.112697    0.176029   -0.011440
C     0.255977    1.410361   -0.119004   -0.192873   -0.002188   -0.005258
O    -2.268977   -1.207669    0.028730   -0.012555    0.021236   -0.002096
O     0.150289    2.679576   -0.227937    0.035784   -0.104801    0.009744
H     1.745001   -1.780056    0.185445    1.031319    1.091084   -0.062181
H    -1.809653    1.293018   -0.167099   -0.152737   -0.250002    0.016157
H     2.189117    1.040492   -0.035252    0.489289   -0.025310    0.015590
11
* Frequency(27) 1588.9010
C     1.309805    0.381413   -0.005093    0.134064    0.547754   -0.041514
C     1.335554   -0.515648    0.069643   -0.448207   -0.805713    0.054278
N    -0.068704   -1.541338    0.115928    0.220507    0.248976   -0.014593
C    -1.121854   -0.647572    0.013223   -0.027298   -0.192637    0.015218
N    -1.034548    0.616243   -0.088627    0.112697    0.176029   -0.011440
C     0.261433    1.410423   -0.118855   -0.192873   -0.002188   -0.005258
O    -2.268622   -1.208270    0.028790   -0.012555    0.021236   -0.002096
O     0.149276    2.682541   -0.228213    0.035784   -0.104801    0.009744
H     1.715831   -1.810916    0.187204    1.031319    1.091084   -0.062181
H    -1.805333    1.300089   -0.167556   -0.152737   -0.250002    0.016157
H     2.175278    1.041208   -0.035693    0.489289   -0.025310    0.015590
11
* Frequency(27) 1588.9010
C     1.311080    0.386624   -0.005488    0.134064    0.547754   -0.041514
C     1.331289   -0.523314    0.070159   -0.448207   -0.805713    0.054278
N    -0.066606   -1.538969    0.115789    0.220507    0.248976   -0.014593
C    -1.122114   -0.649404    0.013368   -0.027298   -0.192637    0.015218
N    -1.033475    0.617918   -0.088735    0.112697    0.176029   -0.011440
C     0.259597    1.410402   -0.118905   -0.192873   -0.002188   -0.005258
O    -2.268741   -1.208068    0.028770   -0.012555    0.021236   -0.002096
O     0.149617    2.681543   -0.228120    0.035784   -0.104801    0.009744
H     1.725643   -1.800535    0.186612    1.031319    1.091084   -0.062181
H    -1.806786    1.297711   -0.167402   -0.152737   -0.250002    0.016157
H     2.179933    1.040967   -0.035544    0.489289   -0.025310    0.015590
11
* Frequency(27) 1588.9010
C     1.317285    0.411975   -0.007410    0.134064    0.547754   -0.041514
C     1.310546   -0.560604    0.072671   -0.448207   -0.805713    0.054278
N    -0.056400   -1.527446    0.115114    0.220507    0.248976   -0.014593
C    -1.123377   -0.658320    0.014073   -0.027298   -0.192637    0.015218
N    -1.028260    0.626065   -0.089265    0.112697    0.176029   -0.011440
C     0.250671    1.410301   -0.119148   -0.192873   -0.002188   -0.005258
O    -2.269322   -1.207085    0.028673   -0.012555    0.021236   -0.002096
O     0.151273    2.676693   -0.227669    0.035784   -0.104801    0.009744
H     1.773375   -1.750037    0.183734    1.031319    1.091084   -0.062181
H    -1.813855    1.286140   -0.166654   -0.152737   -0.250002    0.016157
H     2.202578    1.039795   -0.034823    0.489289   -0.025310    0.015590
11
* Frequency(27) 1588.9010
C     1.327746    0.454719   -0.010649    0.134064    0.547754   -0.041514
C     1.275570   -0.623477    0.076907   -0.448207   -0.805713    0.054278
N    -0.039193   -1.508018    0.113975    0.220507    0.248976   -0.014593
C    -1.125507   -0.673352    0.015260   -0.027298   -0.192637    0.015218
N    -1.019465    0.639801   -0.090158    0.112697    0.176029   -0.011440
C     0.235620    1.410130   -0.119559   -0.192873   -0.002188   -0.005258
O    -2.270302   -1.205428    0.028509   -0.012555    0.021236   -0.002096
O     0.154065    2.668515   -0.226909    0.035784   -0.104801    0.009744
H     1.853852   -1.664896    0.178882    1.031319    1.091084   -0.062181
H    -1.825774    1.266632   -0.165394   -0.152737   -0.250002    0.016157
H     2.240760    1.037820   -0.033606    0.489289   -0.025310    0.015590
11
* Frequency(27) 1588.9010
C     1.341331    0.510222   -0.014856    0.134064    0.547754   -0.041514
C     1.230154   -0.705120    0.082407   -0.448207   -0.805713    0.054278
N    -0.016849   -1.482789    0.112496    0.220507    0.248976   -0.014593
C    -1.128273   -0.692872    0.016802   -0.027298   -0.192637    0.015218
N    -1.008046    0.657638   -0.091317    0.112697    0.176029   -0.011440
C     0.216077    1.409908   -0.120091   -0.192873   -0.002188   -0.005258
O    -2.271574   -1.203276    0.028297   -0.012555    0.021236   -0.002096
O     0.157691    2.657896   -0.225921    0.035784   -0.104801    0.009744
H     1.958355   -1.554337    0.172581    1.031319    1.091084   -0.062181
H    -1.841250    1.241299   -0.163756   -0.152737   -0.250002    0.016157
H     2.290339    1.035256   -0.032026    0.489289   -0.025310    0.015590
11
* Frequency(27) 1588.9010
C     1.356566    0.572472   -0.019574    0.134064    0.547754   -0.041514
C     1.179217   -0.796685    0.088575   -0.448207   -0.805713    0.054278
N     0.008210   -1.454494    0.110838    0.220507    0.248976   -0.014593
C    -1.131376   -0.714764    0.018532   -0.027298   -0.192637    0.015218
N    -0.995238    0.677642   -0.092617    0.112697    0.176029   -0.011440
C     0.194158    1.409660   -0.120689   -0.192873   -0.002188   -0.005258
O    -2.273001   -1.200862    0.028059   -0.012555    0.021236   -0.002096
O     0.161758    2.645985   -0.224814    0.035784   -0.104801    0.009744
H     2.075560   -1.430341    0.165515    1.031319    1.091084   -0.062181
H    -1.858608    1.212888   -0.161920   -0.152737   -0.250002    0.016157
H     2.345944    1.032379   -0.030255    0.489289   -0.025310    0.015590
