11
* (null), Energy   -1000.0000000
C     1.356566    0.572472   -0.019574    0.305931   -0.294842    0.039066
C     1.179217   -0.796685    0.088575    0.911043   -0.569949    0.063626
N     0.008210   -1.454494    0.110838    0.329043   -0.006577    0.023663
C    -1.131376   -0.714764    0.018532   -0.278368   -0.223375   -0.022357
N    -0.995238    0.677642   -0.092617   -0.378530    0.211170   -0.017378
C     0.194158    1.409660   -0.120689   -0.058061    0.325882   -0.035454
O    -2.273001   -1.200862    0.028059   -0.562574   -0.078146   -0.000497
O     0.161758    2.645985   -0.224814   -0.088233    0.510791   -0.043655
H     2.075560   -1.430341    0.165515    0.760689   -0.827511    0.090996
H    -1.858608    1.212888   -0.161920   -0.433383    0.172915   -0.025414
H     2.345944    1.032379   -0.030255    0.197702    0.027789    0.013085
11
* Frequency(16)  804.6736
C     1.391334    0.538964   -0.015134    0.305931   -0.294842    0.039066
C     1.282752   -0.861456    0.095806    0.911043   -0.569949    0.063626
N     0.045604   -1.455242    0.113527    0.329043   -0.006577    0.023663
C    -1.163011   -0.740150    0.015991   -0.278368   -0.223375   -0.022357
N    -1.038256    0.701641   -0.094592   -0.378530    0.211170   -0.017378
C     0.187559    1.446694   -0.124718   -0.058061    0.325882   -0.035454
O    -2.336935   -1.209743    0.028002   -0.562574   -0.078146   -0.000497
O     0.151731    2.704034   -0.229775   -0.088233    0.510791   -0.043655
H     2.162008   -1.524383    0.175856    0.760689   -0.827511    0.090996
H    -1.907860    1.232539   -0.164808   -0.433383    0.172915   -0.025414
H     2.368412    1.035537   -0.028768    0.197702    0.027789    0.013085
11
* Frequency(16)  804.6736
C     1.422334    0.509088   -0.011175    0.305931   -0.294842    0.039066
C     1.375068   -0.919209    0.102253    0.911043   -0.569949    0.063626
N     0.078946   -1.455908    0.115925    0.329043   -0.006577    0.023663
C    -1.191218   -0.762784    0.013725   -0.278368   -0.223375   -0.022357
N    -1.076613    0.723039   -0.096353   -0.378530    0.211170   -0.017378
C     0.181676    1.479716   -0.128311   -0.058061    0.325882   -0.035454
O    -2.393940   -1.217662    0.027952   -0.562574   -0.078146   -0.000497
O     0.142790    2.755793   -0.234199   -0.088233    0.510791   -0.043655
H     2.239088   -1.608235    0.185076    0.760689   -0.827511    0.090996
H    -1.951774    1.250060   -0.167384   -0.433383    0.172915   -0.025414
H     2.388445    1.038353   -0.027442    0.197702    0.027789    0.013085
11
* Frequency(16)  804.6736
C     1.446207    0.486081   -0.008127    0.305931   -0.294842    0.039066
C     1.446160   -0.963684    0.107218    0.911043   -0.569949    0.063626
N     0.104622   -1.456421    0.117771    0.329043   -0.006577    0.023663
C    -1.212940   -0.780215    0.011981   -0.278368   -0.223375   -0.022357
N    -1.106151    0.739517   -0.097709   -0.378530    0.211170   -0.017378
C     0.177145    1.505146   -0.131077   -0.058061    0.325882   -0.035454
O    -2.437840   -1.223760    0.027913   -0.562574   -0.078146   -0.000497
O     0.135905    2.795651   -0.237605   -0.088233    0.510791   -0.043655
H     2.298448   -1.672808    0.192177    0.760689   -0.827511    0.090996
H    -1.985593    1.263553   -0.169367   -0.433383    0.172915   -0.025414
H     2.403873    1.040522   -0.026421    0.197702    0.027789    0.013085
11
* Frequency(16)  804.6736
C     1.460366    0.472435   -0.006319    0.305931   -0.294842    0.039066
C     1.488325   -0.990063    0.110163    0.911043   -0.569949    0.063626
N     0.119851   -1.456726    0.118867    0.329043   -0.006577    0.023663
C    -1.225823   -0.790553    0.010946   -0.278368   -0.223375   -0.022357
N    -1.123670    0.749290   -0.098513   -0.378530    0.211170   -0.017378
C     0.174458    1.520228   -0.132718   -0.058061    0.325882   -0.035454
O    -2.463877   -1.227376    0.027890   -0.562574   -0.078146   -0.000497
O     0.131822    2.819292   -0.239626   -0.088233    0.510791   -0.043655
H     2.333654   -1.711107    0.196388    0.760689   -0.827511    0.090996
H    -2.005651    1.271556   -0.170543   -0.433383    0.172915   -0.025414
H     2.413023    1.041808   -0.025815    0.197702    0.027789    0.013085
11
* Frequency(16)  804.6736
C     1.463277    0.469629   -0.005947    0.305931   -0.294842    0.039066
C     1.496993   -0.995485    0.110768    0.911043   -0.569949    0.063626
N     0.122982   -1.456788    0.119092    0.329043   -0.006577    0.023663
C    -1.228472   -0.792678    0.010733   -0.278368   -0.223375   -0.022357
N    -1.127271    0.751299   -0.098678   -0.378530    0.211170   -0.017378
C     0.173906    1.523329   -0.133055   -0.058061    0.325882   -0.035454
O    -2.469230   -1.228120    0.027885   -0.562574   -0.078146   -0.000497
O     0.130982    2.824152   -0.240041   -0.088233    0.510791   -0.043655
H     2.340891   -1.718980    0.197254    0.760689   -0.827511    0.090996
H    -2.009774    1.273201   -0.170785   -0.433383    0.172915   -0.025414
H     2.414904    1.042072   -0.025690    0.197702    0.027789    0.013085
11
* Frequency(16)  804.6736
C     1.454624    0.477969   -0.007052    0.305931   -0.294842    0.039066
C     1.471225   -0.979365    0.108969    0.911043   -0.569949    0.063626
N     0.113675   -1.456602    0.118422    0.329043   -0.006577    0.023663
C    -1.220598   -0.786360    0.011366   -0.278368   -0.223375   -0.022357
N    -1.116565    0.745327   -0.098187   -0.378530    0.211170   -0.017378
C     0.175548    1.514111   -0.132053   -0.058061    0.325882   -0.035454
O    -2.453318   -1.225910    0.027899   -0.562574   -0.078146   -0.000497
O     0.133478    2.809705   -0.238806   -0.088233    0.510791   -0.043655
H     2.319376   -1.695575    0.194681    0.760689   -0.827511    0.090996
H    -1.997516    1.268311   -0.170066   -0.433383    0.172915   -0.025414
H     2.409312    1.041286   -0.026060    0.197702    0.027789    0.013085
11
* Frequency(16)  804.6736
C     1.435345    0.496549   -0.009514    0.305931   -0.294842    0.039066
C     1.413814   -0.943448    0.104959    0.911043   -0.569949    0.063626
N     0.092940   -1.456188    0.116931    0.329043   -0.006577    0.023663
C    -1.203056   -0.772284    0.012775   -0.278368   -0.223375   -0.022357
N    -1.092711    0.732019   -0.097092   -0.378530    0.211170   -0.017378
C     0.179207    1.493575   -0.129818   -0.058061    0.325882   -0.035454
O    -2.417866   -1.220985    0.027931   -0.562574   -0.078146   -0.000497
O     0.139038    2.777516   -0.236055   -0.088233    0.510791   -0.043655
H     2.271440   -1.643428    0.188946    0.760689   -0.827511    0.090996
H    -1.970206    1.257414   -0.168464   -0.433383    0.172915   -0.025414
H     2.396853    1.039535   -0.026885    0.197702    0.027789    0.013085
11
* Frequency(16)  804.6736
C     1.407529    0.523356   -0.013066    0.305931   -0.294842    0.039066
C     1.330980   -0.891628    0.099174    0.911043   -0.569949    0.063626
N     0.063023   -1.455590    0.114780    0.329043   -0.006577    0.023663
C    -1.177747   -0.751974    0.014807   -0.278368   -0.223375   -0.022357
N    -1.058294    0.712819   -0.095512   -0.378530    0.211170   -0.017378
C     0.184486    1.463945   -0.126595   -0.058061    0.325882   -0.035454
O    -2.366716   -1.213880    0.027976   -0.562574   -0.078146   -0.000497
O     0.147060    2.731074   -0.232086   -0.088233    0.510791   -0.043655
H     2.202276   -1.568189    0.180673    0.760689   -0.827511    0.090996
H    -1.930802    1.241692   -0.166154   -0.433383    0.172915   -0.025414
H     2.378878    1.037008   -0.028075    0.197702    0.027789    0.013085
11
* Frequency(16)  804.6736
C     1.374191    0.555486   -0.017323    0.305931   -0.294842    0.039066
C     1.231701   -0.829518    0.092241    0.911043   -0.569949    0.063626
N     0.027166   -1.454873    0.112201    0.329043   -0.006577    0.023663
C    -1.147412   -0.727632    0.017244   -0.278368   -0.223375   -0.022357
N    -1.017045    0.689808   -0.093618   -0.378530    0.211170   -0.017378
C     0.190813    1.428433   -0.122731   -0.058061    0.325882   -0.035454
O    -2.305410   -1.205364    0.028030   -0.562574   -0.078146   -0.000497
O     0.156675    2.675411   -0.227329   -0.088233    0.510791   -0.043655
H     2.119381   -1.478012    0.170757    0.760689   -0.827511    0.090996
H    -1.883574    1.222849   -0.163384   -0.433383    0.172915   -0.025414
H     2.357334    1.033980   -0.029501    0.197702    0.027789    0.013085
11
* Frequency(16)  804.6736
C     1.338942    0.589457   -0.021824    0.305931   -0.294842    0.039066
C     1.126734   -0.763851    0.084910    0.911043   -0.569949    0.063626
N    -0.010746   -1.454115    0.109475    0.329043   -0.006577    0.023663
C    -1.115340   -0.701896    0.019820   -0.278368   -0.223375   -0.022357
N    -0.973432    0.665477   -0.091616   -0.378530    0.211170   -0.017378
C     0.197502    1.390886   -0.118646   -0.058061    0.325882   -0.035454
O    -2.240592   -1.196361    0.028087   -0.562574   -0.078146   -0.000497
O     0.166841    2.616560   -0.222299   -0.088233    0.510791   -0.043655
H     2.031738   -1.382669    0.160272    0.760689   -0.827511    0.090996
H    -1.833642    1.202926   -0.160456   -0.433383    0.172915   -0.025414
H     2.334555    1.030778   -0.031008    0.197702    0.027789    0.013085
11
* Frequency(16)  804.6736
C     1.305604    0.621587   -0.026081    0.305931   -0.294842    0.039066
C     1.027454   -0.701742    0.077976    0.911043   -0.569949    0.063626
N    -0.046603   -1.453399    0.106896    0.329043   -0.006577    0.023663
C    -1.085005   -0.677554    0.022256   -0.278368   -0.223375   -0.022357
N    -0.932182    0.642466   -0.089722   -0.378530    0.211170   -0.017378
C     0.203830    1.355374   -0.114783   -0.058061    0.325882   -0.035454
O    -2.179286   -1.187845    0.028142   -0.562574   -0.078146   -0.000497
O     0.176456    2.560897   -0.217542   -0.088233    0.510791   -0.043655
H     1.948843   -1.292493    0.150356    0.760689   -0.827511    0.090996
H    -1.786414    1.184083   -0.157687   -0.433383    0.172915   -0.025414
H     2.313011    1.027750   -0.032434    0.197702    0.027789    0.013085
11
* Frequency(16)  804.6736
C     1.277788    0.648395   -0.029633    0.305931   -0.294842    0.039066
C     0.944620   -0.649921    0.072191    0.911043   -0.569949    0.063626
N    -0.076520   -1.452800    0.104745    0.329043   -0.006577    0.023663
C    -1.059695   -0.657244    0.024289   -0.278368   -0.223375   -0.022357
N    -0.897766    0.623266   -0.088142   -0.378530    0.211170   -0.017378
C     0.209109    1.325744   -0.111559   -0.058061    0.325882   -0.035454
O    -2.128136   -1.180740    0.028187   -0.562574   -0.078146   -0.000497
O     0.184479    2.514455   -0.213573   -0.088233    0.510791   -0.043655
H     1.879679   -1.217254    0.142083    0.760689   -0.827511    0.090996
H    -1.747011    1.168361   -0.155376   -0.433383    0.172915   -0.025414
H     2.295035    1.025224   -0.033624    0.197702    0.027789    0.013085
11
* Frequency(16)  804.6736
C     1.258509    0.666975   -0.032095    0.305931   -0.294842    0.039066
C     0.887209   -0.614004    0.068182    0.911043   -0.569949    0.063626
N    -0.097255   -1.452386    0.103254    0.329043   -0.006577    0.023663
C    -1.042153   -0.643168    0.025698   -0.278368   -0.223375   -0.022357
N    -0.873912    0.609958   -0.087047   -0.378530    0.211170   -0.017378
C     0.212767    1.305208   -0.109325   -0.058061    0.325882   -0.035454
O    -2.092684   -1.175815    0.028218   -0.562574   -0.078146   -0.000497
O     0.190039    2.482266   -0.210822   -0.088233    0.510791   -0.043655
H     1.831743   -1.165106    0.136349    0.760689   -0.827511    0.090996
H    -1.719700    1.157465   -0.153774   -0.433383    0.172915   -0.025414
H     2.282577    1.023472   -0.034449    0.197702    0.027789    0.013085
11
* Frequency(16)  804.6736
C     1.249856    0.675314   -0.033200    0.305931   -0.294842    0.039066
C     0.861441   -0.597884    0.066382    0.911043   -0.569949    0.063626
N    -0.106562   -1.452200    0.102584    0.329043   -0.006577    0.023663
C    -1.034280   -0.636850    0.026330   -0.278368   -0.223375   -0.022357
N    -0.863205    0.603986   -0.086555   -0.378530    0.211170   -0.017378
C     0.214410    1.295991   -0.108322   -0.058061    0.325882   -0.035454
O    -2.076772   -1.173605    0.028232   -0.562574   -0.078146   -0.000497
O     0.192534    2.467819   -0.209587   -0.088233    0.510791   -0.043655
H     1.810228   -1.141701    0.133775    0.760689   -0.827511    0.090996
H    -1.707442    1.152574   -0.153056   -0.433383    0.172915   -0.025414
H     2.276985    1.022686   -0.034819    0.197702    0.027789    0.013085
11
* Frequency(16)  804.6736
C     1.252767    0.672509   -0.032828    0.305931   -0.294842    0.039066
C     0.870109   -0.603307    0.066988    0.911043   -0.569949    0.063626
N    -0.103431   -1.452263    0.102810    0.329043   -0.006577    0.023663
C    -1.036928   -0.638975    0.026117   -0.278368   -0.223375   -0.022357
N    -0.866807    0.605995   -0.086721   -0.378530    0.211170   -0.017378
C     0.213857    1.299091   -0.108660   -0.058061    0.325882   -0.035454
O    -2.082125   -1.174348    0.028228   -0.562574   -0.078146   -0.000497
O     0.191695    2.472679   -0.210002   -0.088233    0.510791   -0.043655
H     1.817465   -1.149574    0.134641    0.760689   -0.827511    0.090996
H    -1.711566    1.154219   -0.153297   -0.433383    0.172915   -0.025414
H     2.278866    1.022951   -0.034694    0.197702    0.027789    0.013085
11
* Frequency(16)  804.6736
C     1.266926    0.658863   -0.031020    0.305931   -0.294842    0.039066
C     0.912274   -0.629685    0.069932    0.911043   -0.569949    0.063626
N    -0.088202   -1.452567    0.103905    0.329043   -0.006577    0.023663
C    -1.049812   -0.649313    0.025083   -0.278368   -0.223375   -0.022357
N    -0.884326    0.615768   -0.087525   -0.378530    0.211170   -0.017378
C     0.211170    1.314174   -0.110301   -0.058061    0.325882   -0.035454
O    -2.108162   -1.177965    0.028205   -0.562574   -0.078146   -0.000497
O     0.187611    2.496319   -0.212023   -0.088233    0.510791   -0.043655
H     1.852671   -1.187873    0.138852    0.760689   -0.827511    0.090996
H    -1.731623    1.162222   -0.154474   -0.433383    0.172915   -0.025414
H     2.288016    1.024237   -0.034089    0.197702    0.027789    0.013085
11
* Frequency(16)  804.6736
C     1.290799    0.635855   -0.027972    0.305931   -0.294842    0.039066
C     0.983366   -0.674160    0.074897    0.911043   -0.569949    0.063626
N    -0.062526   -1.453080    0.105751    0.329043   -0.006577    0.023663
C    -1.071534   -0.666744    0.023338   -0.278368   -0.223375   -0.022357
N    -0.913864    0.632246   -0.088881   -0.378530    0.211170   -0.017378
C     0.206639    1.339603   -0.113067   -0.058061    0.325882   -0.035454
O    -2.152062   -1.184063    0.028166   -0.562574   -0.078146   -0.000497
O     0.180726    2.536178   -0.215429   -0.088233    0.510791   -0.043655
H     1.912031   -1.252447    0.145953    0.760689   -0.827511    0.090996
H    -1.765442    1.175715   -0.156457   -0.433383    0.172915   -0.025414
H     2.303443    1.026405   -0.033068    0.197702    0.027789    0.013085
11
* Frequency(16)  804.6736
C     1.321799    0.605979   -0.024013    0.305931   -0.294842    0.039066
C     1.075682   -0.731913    0.081344    0.911043   -0.569949    0.063626
N    -0.029184   -1.453747    0.108149    0.329043   -0.006577    0.023663
C    -1.099741   -0.689379    0.021072   -0.278368   -0.223375   -0.022357
N    -0.952220    0.653644   -0.090642   -0.378530    0.211170   -0.017378
C     0.200756    1.372625   -0.116660   -0.058061    0.325882   -0.035454
O    -2.209067   -1.191982    0.028115   -0.562574   -0.078146   -0.000497
O     0.171785    2.587937   -0.219853   -0.088233    0.510791   -0.043655
H     1.989111   -1.336298    0.155173    0.760689   -0.827511    0.090996
H    -1.809356    1.193237   -0.159032   -0.433383    0.172915   -0.025414
H     2.323476    1.029221   -0.031742    0.197702    0.027789    0.013085
11
* Frequency(16)  804.6736
C     1.356566    0.572472   -0.019574    0.305931   -0.294842    0.039066
C     1.179217   -0.796685    0.088575    0.911043   -0.569949    0.063626
N     0.008210   -1.454494    0.110838    0.329043   -0.006577    0.023663
C    -1.131376   -0.714764    0.018532   -0.278368   -0.223375   -0.022357
N    -0.995238    0.677642   -0.092617   -0.378530    0.211170   -0.017378
C     0.194158    1.409660   -0.120689   -0.058061    0.325882   -0.035454
O    -2.273001   -1.200862    0.028059   -0.562574   -0.078146   -0.000497
O     0.161758    2.645985   -0.224814   -0.088233    0.510791   -0.043655
H     2.075560   -1.430341    0.165515    0.760689   -0.827511    0.090996
H    -1.858608    1.212888   -0.161920   -0.433383    0.172915   -0.025414
H     2.345944    1.032379   -0.030255    0.197702    0.027789    0.013085
