11
* (null), Energy   -1000.0000000
C     1.589770    0.404289    0.010476   -0.007678    0.023888    0.291797
C     1.411370   -0.965186    0.118323    0.000493   -0.002028   -0.021770
N     0.241399   -1.624530    0.140582    0.006484   -0.020834   -0.240968
C    -0.900298   -0.884733    0.048827    0.004949   -0.013431   -0.159217
N    -0.762264    0.508959   -0.063346    0.032586   -0.094319   -1.129427
C     0.427306    1.242907   -0.091179    0.002714   -0.006537   -0.079393
O    -2.041444   -1.368814    0.058335   -0.020647    0.064139    0.749799
O     0.393949    2.478247   -0.194845   -0.014327    0.036034    0.435073
H     2.308617   -1.598423    0.195226   -0.001483    0.004160    0.051907
H    -1.625843    1.043584   -0.132009    0.030543   -0.084838   -1.029291
H     2.579572    0.863274    0.000136   -0.022576    0.068320    0.839490
11
* Frequency(6)  165.9582
C     1.588898    0.407003    0.043637   -0.007678    0.023888    0.291797
C     1.411426   -0.965417    0.115849    0.000493   -0.002028   -0.021770
N     0.242136   -1.626897    0.113198    0.006484   -0.020834   -0.240968
C    -0.899736   -0.886260    0.030733    0.004949   -0.013431   -0.159217
N    -0.758561    0.498240   -0.191700    0.032586   -0.094319   -1.129427
C     0.427614    1.242164   -0.100201    0.002714   -0.006537   -0.079393
O    -2.043790   -1.361525    0.143546   -0.020647    0.064139    0.749799
O     0.392320    2.482342   -0.145401   -0.014327    0.036034    0.435073
H     2.308449   -1.597950    0.201125   -0.001483    0.004160    0.051907
H    -1.622372    1.033943   -0.248983    0.030543   -0.084838   -1.029291
H     2.577007    0.871038    0.095540   -0.022576    0.068320    0.839490
11
* Frequency(6)  165.9582
C     1.588120    0.409424    0.073205   -0.007678    0.023888    0.291797
C     1.411476   -0.965622    0.113643    0.000493   -0.002028   -0.021770
N     0.242793   -1.629009    0.088780    0.006484   -0.020834   -0.240968
C    -0.899234   -0.887621    0.014599    0.004949   -0.013431   -0.159217
N    -0.755259    0.488683   -0.306144    0.032586   -0.094319   -1.129427
C     0.427889    1.241502   -0.108246    0.002714   -0.006537   -0.079393
O    -2.045882   -1.355025    0.219523   -0.020647    0.064139    0.749799
O     0.390869    2.485993   -0.101315   -0.014327    0.036034    0.435073
H     2.308299   -1.597528    0.206384   -0.001483    0.004160    0.051907
H    -1.619277    1.025346   -0.353281    0.030543   -0.084838   -1.029291
H     2.574719    0.877961    0.180605   -0.022576    0.068320    0.839490
11
* Frequency(6)  165.9582
C     1.587520    0.411288    0.095975   -0.007678    0.023888    0.291797
C     1.411515   -0.965781    0.111944    0.000493   -0.002028   -0.021770
N     0.243299   -1.630634    0.069977    0.006484   -0.020834   -0.240968
C    -0.898848   -0.888669    0.002175    0.004949   -0.013431   -0.159217
N    -0.752716    0.481323   -0.394277    0.032586   -0.094319   -1.129427
C     0.428101    1.240992   -0.114441    0.002714   -0.006537   -0.079393
O    -2.047493   -1.350020    0.278032   -0.020647    0.064139    0.749799
O     0.389751    2.488805   -0.067365   -0.014327    0.036034    0.435073
H     2.308183   -1.597204    0.210435   -0.001483    0.004160    0.051907
H    -1.616894    1.018726   -0.433600    0.030543   -0.084838   -1.029291
H     2.572958    0.883293    0.246114   -0.022576    0.068320    0.839490
11
* Frequency(6)  165.9582
C     1.587165    0.412394    0.109480   -0.007678    0.023888    0.291797
C     1.411538   -0.965874    0.110937    0.000493   -0.002028   -0.021770
N     0.243599   -1.631599    0.058824    0.006484   -0.020834   -0.240968
C    -0.898619   -0.889290   -0.005194    0.004949   -0.013431   -0.159217
N    -0.751208    0.476957   -0.446549    0.032586   -0.094319   -1.129427
C     0.428226    1.240689   -0.118116    0.002714   -0.006537   -0.079393
O    -2.048449   -1.347052    0.312734   -0.020647    0.064139    0.749799
O     0.389088    2.490473   -0.047229   -0.014327    0.036034    0.435073
H     2.308114   -1.597011    0.212837   -0.001483    0.004160    0.051907
H    -1.615480    1.014800   -0.481238    0.030543   -0.084838   -1.029291
H     2.571913    0.886455    0.284967   -0.022576    0.068320    0.839490
11
* Frequency(6)  165.9582
C     1.587092    0.412621    0.112256   -0.007678    0.023888    0.291797
C     1.411542   -0.965894    0.110729    0.000493   -0.002028   -0.021770
N     0.243661   -1.631797    0.056532    0.006484   -0.020834   -0.240968
C    -0.898572   -0.889418   -0.006709    0.004949   -0.013431   -0.159217
N    -0.750898    0.476060   -0.457295    0.032586   -0.094319   -1.129427
C     0.428252    1.240627   -0.118871    0.002714   -0.006537   -0.079393
O    -2.048645   -1.346442    0.319868   -0.020647    0.064139    0.749799
O     0.388951    2.490816   -0.043089   -0.014327    0.036034    0.435073
H     2.308100   -1.596971    0.213331   -0.001483    0.004160    0.051907
H    -1.615190    1.013992   -0.491031    0.030543   -0.084838   -1.029291
H     2.571698    0.887105    0.292954   -0.022576    0.068320    0.839490
11
* Frequency(6)  165.9582
C     1.587309    0.411945    0.104003   -0.007678    0.023888    0.291797
C     1.411528   -0.965836    0.111345    0.000493   -0.002028   -0.021770
N     0.243477   -1.631208    0.063347    0.006484   -0.020834   -0.240968
C    -0.898712   -0.889038   -0.002205    0.004949   -0.013431   -0.159217
N    -0.751820    0.478728   -0.425351    0.032586   -0.094319   -1.129427
C     0.428176    1.240812   -0.116626    0.002714   -0.006537   -0.079393
O    -2.048061   -1.348256    0.298661   -0.020647    0.064139    0.749799
O     0.389357    2.489797   -0.055395   -0.014327    0.036034    0.435073
H     2.308142   -1.597089    0.211863   -0.001483    0.004160    0.051907
H    -1.616053    1.016392   -0.461918    0.030543   -0.084838   -1.029291
H     2.572336    0.885172    0.269210   -0.022576    0.068320    0.839490
11
* Frequency(6)  165.9582
C     1.587793    0.410440    0.085615   -0.007678    0.023888    0.291797
C     1.411497   -0.965709    0.112717    0.000493   -0.002028   -0.021770
N     0.243069   -1.629895    0.078532    0.006484   -0.020834   -0.240968
C    -0.899024   -0.888192    0.007828    0.004949   -0.013431   -0.159217
N    -0.753873    0.484671   -0.354177    0.032586   -0.094319   -1.129427
C     0.428005    1.241224   -0.111623    0.002714   -0.006537   -0.079393
O    -2.046760   -1.352298    0.251411   -0.020647    0.064139    0.749799
O     0.390259    2.487526   -0.082812   -0.014327    0.036034    0.435073
H     2.308236   -1.597351    0.208592   -0.001483    0.004160    0.051907
H    -1.617978    1.021738   -0.397055    0.030543   -0.084838   -1.029291
H     2.573759    0.880867    0.216308   -0.022576    0.068320    0.839490
11
* Frequency(6)  165.9582
C     1.588491    0.408268    0.059084   -0.007678    0.023888    0.291797
C     1.411453   -0.965524    0.114696    0.000493   -0.002028   -0.021770
N     0.242479   -1.628000    0.100442    0.006484   -0.020834   -0.240968
C    -0.899474   -0.886971    0.022304    0.004949   -0.013431   -0.159217
N    -0.756836    0.493247   -0.251488    0.032586   -0.094319   -1.129427
C     0.427758    1.241818   -0.104404    0.002714   -0.006537   -0.079393
O    -2.044883   -1.358129    0.183238   -0.020647    0.064139    0.749799
O     0.391562    2.484249   -0.122370   -0.014327    0.036034    0.435073
H     2.308370   -1.597730    0.203873   -0.001483    0.004160    0.051907
H    -1.620755    1.029452   -0.303470    0.030543   -0.084838   -1.029291
H     2.575812    0.874655    0.139980   -0.022576    0.068320    0.839490
11
* Frequency(6)  165.9582
C     1.589328    0.405665    0.027286   -0.007678    0.023888    0.291797
C     1.411399   -0.965303    0.117069    0.000493   -0.002028   -0.021770
N     0.241773   -1.625730    0.126701    0.006484   -0.020834   -0.240968
C    -0.900013   -0.885507    0.039655    0.004949   -0.013431   -0.159217
N    -0.760387    0.503525   -0.128410    0.032586   -0.094319   -1.129427
C     0.427462    1.242530   -0.095752    0.002714   -0.006537   -0.079393
O    -2.042633   -1.365119    0.101529   -0.020647    0.064139    0.749799
O     0.393123    2.480323   -0.169781   -0.014327    0.036034    0.435073
H     2.308532   -1.598183    0.198216   -0.001483    0.004160    0.051907
H    -1.624084    1.038697   -0.191305    0.030543   -0.084838   -1.029291
H     2.578272    0.867210    0.048498   -0.022576    0.068320    0.839490
11
* Frequency(6)  165.9582
C     1.590212    0.402913   -0.006334   -0.007678    0.023888    0.291797
C     1.411342   -0.965070    0.119577    0.000493   -0.002028   -0.021770
N     0.241025   -1.623329    0.154464    0.006484   -0.020834   -0.240968
C    -0.900583   -0.883960    0.057999    0.004949   -0.013431   -0.159217
N    -0.764142    0.514392    0.001718    0.032586   -0.094319   -1.129427
C     0.427149    1.243284   -0.086605    0.002714   -0.006537   -0.079393
O    -2.040254   -1.372509    0.015141   -0.020647    0.064139    0.749799
O     0.394774    2.476171   -0.219908   -0.014327    0.036034    0.435073
H     2.308703   -1.598662    0.192236   -0.001483    0.004160    0.051907
H    -1.627603    1.048472   -0.072714    0.030543   -0.084838   -1.029291
H     2.580873    0.859338   -0.048225   -0.022576    0.068320    0.839490
11
* Frequency(6)  165.9582
C     1.591049    0.400309   -0.038132   -0.007678    0.023888    0.291797
C     1.411288   -0.964849    0.121949    0.000493   -0.002028   -0.021770
N     0.240319   -1.621059    0.180723    0.006484   -0.020834   -0.240968
C    -0.901122   -0.882496    0.075349    0.004949   -0.013431   -0.159217
N    -0.767693    0.524671    0.124796    0.032586   -0.094319   -1.129427
C     0.426854    1.243996   -0.077953    0.002714   -0.006537   -0.079393
O    -2.038004   -1.379498   -0.066568   -0.020647    0.064139    0.749799
O     0.396335    2.472244   -0.267320   -0.014327    0.036034    0.435073
H     2.308864   -1.599116    0.186579   -0.001483    0.004160    0.051907
H    -1.630931    1.057717    0.039451    0.030543   -0.084838   -1.029291
H     2.583333    0.851893   -0.139707   -0.022576    0.068320    0.839490
11
* Frequency(6)  165.9582
C     1.591747    0.398138   -0.064663   -0.007678    0.023888    0.291797
C     1.411243   -0.964664    0.123929    0.000493   -0.002028   -0.021770
N     0.239729   -1.619165    0.202632    0.006484   -0.020834   -0.240968
C    -0.901572   -0.881275    0.089826    0.004949   -0.013431   -0.159217
N    -0.770655    0.533246    0.227485    0.032586   -0.094319   -1.129427
C     0.426607    1.244590   -0.070735    0.002714   -0.006537   -0.079393
O    -2.036127   -1.385330   -0.134741   -0.020647    0.064139    0.749799
O     0.397638    2.468968   -0.306877   -0.014327    0.036034    0.435073
H     2.308999   -1.599494    0.181860   -0.001483    0.004160    0.051907
H    -1.633708    1.065431    0.133036    0.030543   -0.084838   -1.029291
H     2.585386    0.845681   -0.216035   -0.022576    0.068320    0.839490
11
* Frequency(6)  165.9582
C     1.592231    0.396632   -0.083051   -0.007678    0.023888    0.291797
C     1.411212   -0.964536    0.125301    0.000493   -0.002028   -0.021770
N     0.239321   -1.617852    0.217817    0.006484   -0.020834   -0.240968
C    -0.901884   -0.880429    0.099859    0.004949   -0.013431   -0.159217
N    -0.772709    0.539190    0.298659    0.032586   -0.094319   -1.129427
C     0.426436    1.245002   -0.065732    0.002714   -0.006537   -0.079393
O    -2.034826   -1.389372   -0.181991   -0.020647    0.064139    0.749799
O     0.398541    2.466697   -0.334295   -0.014327    0.036034    0.435073
H     2.309093   -1.599756    0.178589   -0.001483    0.004160    0.051907
H    -1.635633    1.070777    0.197899    0.030543   -0.084838   -1.029291
H     2.586808    0.841376   -0.268938   -0.022576    0.068320    0.839490
11
* Frequency(6)  165.9582
C     1.592448    0.395957   -0.091304   -0.007678    0.023888    0.291797
C     1.411198   -0.964479    0.125916    0.000493   -0.002028   -0.021770
N     0.239137   -1.617263    0.224633    0.006484   -0.020834   -0.240968
C    -0.902024   -0.880049    0.104362    0.004949   -0.013431   -0.159217
N    -0.773631    0.541858    0.330603    0.032586   -0.094319   -1.129427
C     0.426359    1.245187   -0.063486    0.002714   -0.006537   -0.079393
O    -2.034242   -1.391186   -0.203198   -0.020647    0.064139    0.749799
O     0.398946    2.465678   -0.346600   -0.014327    0.036034    0.435073
H     2.309134   -1.599874    0.177120   -0.001483    0.004160    0.051907
H    -1.636497    1.073176    0.227012    0.030543   -0.084838   -1.029291
H     2.587447    0.839444   -0.292682   -0.022576    0.068320    0.839490
11
* Frequency(6)  165.9582
C     1.592375    0.396184   -0.088528   -0.007678    0.023888    0.291797
C     1.411203   -0.964498    0.125709    0.000493   -0.002028   -0.021770
N     0.239199   -1.617461    0.222340    0.006484   -0.020834   -0.240968
C    -0.901977   -0.880177    0.102847    0.004949   -0.013431   -0.159217
N    -0.773321    0.540960    0.319857    0.032586   -0.094319   -1.129427
C     0.426385    1.245125   -0.064241    0.002714   -0.006537   -0.079393
O    -2.034438   -1.390576   -0.196064   -0.020647    0.064139    0.749799
O     0.398809    2.466021   -0.342461   -0.014327    0.036034    0.435073
H     2.309120   -1.599834    0.177614   -0.001483    0.004160    0.051907
H    -1.636206    1.072369    0.217219    0.030543   -0.084838   -1.029291
H     2.587232    0.840094   -0.284694   -0.022576    0.068320    0.839490
11
* Frequency(6)  165.9582
C     1.592020    0.397289   -0.075023   -0.007678    0.023888    0.291797
C     1.411226   -0.964592    0.124702    0.000493   -0.002028   -0.021770
N     0.239499   -1.618425    0.211188    0.006484   -0.020834   -0.240968
C    -0.901748   -0.880798    0.095479    0.004949   -0.013431   -0.159217
N    -0.771812    0.536595    0.267585    0.032586   -0.094319   -1.129427
C     0.426511    1.244822   -0.067916    0.002714   -0.006537   -0.079393
O    -2.035394   -1.387607   -0.161362   -0.020647    0.064139    0.749799
O     0.398146    2.467688   -0.322325   -0.014327    0.036034    0.435073
H     2.309052   -1.599642    0.180017   -0.001483    0.004160    0.051907
H    -1.634792    1.068443    0.169581    0.030543   -0.084838   -1.029291
H     2.586187    0.843256   -0.245841   -0.022576    0.068320    0.839490
11
* Frequency(6)  165.9582
C     1.591421    0.399153   -0.052253   -0.007678    0.023888    0.291797
C     1.411264   -0.964750    0.123003    0.000493   -0.002028   -0.021770
N     0.240005   -1.620051    0.192384    0.006484   -0.020834   -0.240968
C    -0.901362   -0.881846    0.083054    0.004949   -0.013431   -0.159217
N    -0.769270    0.529235    0.179452    0.032586   -0.094319   -1.129427
C     0.426722    1.244312   -0.074111    0.002714   -0.006537   -0.079393
O    -2.037005   -1.382602   -0.102853   -0.020647    0.064139    0.749799
O     0.397028    2.470500   -0.288374   -0.014327    0.036034    0.435073
H     2.308936   -1.599317    0.184067   -0.001483    0.004160    0.051907
H    -1.632409    1.061823    0.089262    0.030543   -0.084838   -1.029291
H     2.584426    0.848587   -0.180333   -0.022576    0.068320    0.839490
11
* Frequency(6)  165.9582
C     1.590643    0.401574   -0.022685   -0.007678    0.023888    0.291797
C     1.411314   -0.964956    0.120797    0.000493   -0.002028   -0.021770
N     0.240662   -1.622162    0.167967    0.006484   -0.020834   -0.240968
C    -0.900860   -0.883207    0.066921    0.004949   -0.013431   -0.159217
N    -0.765968    0.519678    0.065007    0.032586   -0.094319   -1.129427
C     0.426997    1.243650   -0.082156    0.002714   -0.006537   -0.079393
O    -2.039097   -1.376103   -0.026876   -0.020647    0.064139    0.749799
O     0.395577    2.474152   -0.244289   -0.014327    0.036034    0.435073
H     2.308786   -1.598895    0.189327   -0.001483    0.004160    0.051907
H    -1.629314    1.053226   -0.015036    0.030543   -0.084838   -1.029291
H     2.582138    0.855510   -0.095267   -0.022576    0.068320    0.839490
11
* Frequency(6)  165.9582
C     1.589770    0.404289    0.010476   -0.007678    0.023888    0.291797
C     1.411370   -0.965186    0.118323    0.000493   -0.002028   -0.021770
N     0.241399   -1.624530    0.140582    0.006484   -0.020834   -0.240968
C    -0.900298   -0.884733    0.048827    0.004949   -0.013431   -0.159217
N    -0.762264    0.508959   -0.063346    0.032586   -0.094319   -1.129427
C     0.427306    1.242907   -0.091179    0.002714   -0.006537   -0.079393
O    -2.041444   -1.368814    0.058335   -0.020647    0.064139    0.749799
O     0.393949    2.478247   -0.194845   -0.014327    0.036034    0.435073
H     2.308617   -1.598423    0.195226   -0.001483    0.004160    0.051907
H    -1.625843    1.043584   -0.132009    0.030543   -0.084838   -1.029291
H     2.579572    0.863274    0.000136   -0.022576    0.068320    0.839490
