11
* (null), Energy   -1000.0000000
C     1.589770    0.404289    0.010476    0.020495   -0.044783   -0.497275
C     1.411370   -0.965186    0.118323    0.006640    0.017672    0.323905
N     0.241399   -1.624530    0.140582    0.021331   -0.049292   -0.584697
C    -0.900298   -0.884733    0.048827   -0.042929    0.112187    1.377362
N    -0.762264    0.508959   -0.063346    0.008991   -0.043522   -0.559311
C     0.427306    1.242907   -0.091179   -0.022258    0.069637    0.780266
O    -2.041444   -1.368814    0.058335   -0.000909   -0.030377   -0.345659
O     0.393949    2.478247   -0.194845    0.003910   -0.008866   -0.201542
H     2.308617   -1.598423    0.195226    0.005818    0.009098    0.269720
H    -1.625843    1.043584   -0.132009   -0.017020    0.030925    0.342228
H     2.579572    0.863274    0.000136   -0.004371    0.029056    0.326398
11
* Frequency(17)  810.9467
C     1.592099    0.399199   -0.046037    0.020495   -0.044783   -0.497275
C     1.412125   -0.963178    0.155133    0.006640    0.017672    0.323905
N     0.243823   -1.630131    0.074134    0.021331   -0.049292   -0.584697
C    -0.905177   -0.871984    0.205357   -0.042929    0.112187    1.377362
N    -0.761243    0.504013   -0.126909    0.008991   -0.043522   -0.559311
C     0.424776    1.250821   -0.002505   -0.022258    0.069637    0.780266
O    -2.041547   -1.372266    0.019053   -0.000909   -0.030377   -0.345659
O     0.394393    2.477239   -0.217749    0.003910   -0.008866   -0.201542
H     2.309279   -1.597389    0.225878    0.005818    0.009098    0.269720
H    -1.627777    1.047099   -0.093117   -0.017020    0.030925    0.342228
H     2.579076    0.866576    0.037230   -0.004371    0.029056    0.326398
11
* Frequency(17)  810.9467
C     1.594176    0.394662   -0.096426    0.020495   -0.044783   -0.497275
C     1.412798   -0.961387    0.187954    0.006640    0.017672    0.323905
N     0.245985   -1.635126    0.014887    0.021331   -0.049292   -0.584697
C    -0.909527   -0.860616    0.344924   -0.042929    0.112187    1.377362
N    -0.760331    0.499603   -0.183584    0.008991   -0.043522   -0.559311
C     0.422521    1.257877    0.076559   -0.022258    0.069637    0.780266
O    -2.041639   -1.375344   -0.015973   -0.000909   -0.030377   -0.345659
O     0.394789    2.476341   -0.238171    0.003910   -0.008866   -0.201542
H     2.309868   -1.596467    0.253209    0.005818    0.009098    0.269720
H    -1.629502    1.050233   -0.058439   -0.017020    0.030925    0.342228
H     2.578633    0.869520    0.070304   -0.004371    0.029056    0.326398
11
* Frequency(17)  810.9467
C     1.595775    0.391167   -0.135230    0.020495   -0.044783   -0.497275
C     1.413316   -0.960008    0.213230    0.006640    0.017672    0.323905
N     0.247649   -1.638973   -0.030739    0.021331   -0.049292   -0.584697
C    -0.912876   -0.851862    0.452405   -0.042929    0.112187    1.377362
N    -0.759630    0.496207   -0.227229    0.008991   -0.043522   -0.559311
C     0.420784    1.263311    0.137446   -0.022258    0.069637    0.780266
O    -2.041710   -1.377714   -0.042946   -0.000909   -0.030377   -0.345659
O     0.395094    2.475649   -0.253898    0.003910   -0.008866   -0.201542
H     2.310322   -1.595757    0.274256    0.005818    0.009098    0.269720
H    -1.630830    1.052646   -0.031734   -0.017020    0.030925    0.342228
H     2.578292    0.871788    0.095774   -0.004371    0.029056    0.326398
11
* Frequency(17)  810.9467
C     1.596724    0.389094   -0.158245    0.020495   -0.044783   -0.497275
C     1.413623   -0.959191    0.228221    0.006640    0.017672    0.323905
N     0.248636   -1.641254   -0.057800    0.021331   -0.049292   -0.584697
C    -0.914863   -0.846669    0.516152   -0.042929    0.112187    1.377362
N    -0.759214    0.494192   -0.253115    0.008991   -0.043522   -0.559311
C     0.419754    1.266534    0.173558   -0.022258    0.069637    0.780266
O    -2.041752   -1.379120   -0.058944   -0.000909   -0.030377   -0.345659
O     0.395275    2.475239   -0.263226    0.003910   -0.008866   -0.201542
H     2.310591   -1.595336    0.286739    0.005818    0.009098    0.269720
H    -1.631618    1.054077   -0.015895   -0.017020    0.030925    0.342228
H     2.578089    0.873133    0.110880   -0.004371    0.029056    0.326398
11
* Frequency(17)  810.9467
C     1.596919    0.388668   -0.162976    0.020495   -0.044783   -0.497275
C     1.413687   -0.959022    0.231303    0.006640    0.017672    0.323905
N     0.248839   -1.641723   -0.063363    0.021331   -0.049292   -0.584697
C    -0.915272   -0.845602    0.529257   -0.042929    0.112187    1.377362
N    -0.759128    0.493778   -0.258436    0.008991   -0.043522   -0.559311
C     0.419542    1.267197    0.180982   -0.022258    0.069637    0.780266
O    -2.041761   -1.379409   -0.062232   -0.000909   -0.030377   -0.345659
O     0.395312    2.475154   -0.265143    0.003910   -0.008866   -0.201542
H     2.310647   -1.595249    0.289305    0.005818    0.009098    0.269720
H    -1.631780    1.054371   -0.012639   -0.017020    0.030925    0.342228
H     2.578048    0.873409    0.113985   -0.004371    0.029056    0.326398
11
* Frequency(17)  810.9467
C     1.596339    0.389935   -0.148911    0.020495   -0.044783   -0.497275
C     1.413499   -0.959522    0.222141    0.006640    0.017672    0.323905
N     0.248236   -1.640329   -0.046825    0.021331   -0.049292   -0.584697
C    -0.914057   -0.848775    0.490300   -0.042929    0.112187    1.377362
N    -0.759383    0.495009   -0.242617    0.008991   -0.043522   -0.559311
C     0.420172    1.265227    0.158913   -0.022258    0.069637    0.780266
O    -2.041735   -1.378550   -0.052456   -0.000909   -0.030377   -0.345659
O     0.395202    2.475405   -0.259443    0.003910   -0.008866   -0.201542
H     2.310482   -1.595507    0.281677    0.005818    0.009098    0.269720
H    -1.631298    1.053497   -0.022318   -0.017020    0.030925    0.342228
H     2.578171    0.872587    0.104754   -0.004371    0.029056    0.326398
11
* Frequency(17)  810.9467
C     1.595048    0.392757   -0.117574    0.020495   -0.044783   -0.497275
C     1.413080   -0.960636    0.201730    0.006640    0.017672    0.323905
N     0.246892   -1.637222   -0.009979    0.021331   -0.049292   -0.584697
C    -0.911352   -0.855845    0.403502   -0.042929    0.112187    1.377362
N    -0.759949    0.497752   -0.207371    0.008991   -0.043522   -0.559311
C     0.421574    1.260839    0.109742   -0.022258    0.069637    0.780266
O    -2.041678   -1.376636   -0.030673   -0.000909   -0.030377   -0.345659
O     0.394955    2.475964   -0.246742    0.003910   -0.008866   -0.201542
H     2.310116   -1.596080    0.264680    0.005818    0.009098    0.269720
H    -1.630226    1.051548   -0.043885   -0.017020    0.030925    0.342228
H     2.578447    0.870756    0.084185   -0.004371    0.029056    0.326398
11
* Frequency(17)  810.9467
C     1.593184    0.396829   -0.072361    0.020495   -0.044783   -0.497275
C     1.412477   -0.962243    0.172280    0.006640    0.017672    0.323905
N     0.244952   -1.632741    0.043182    0.021331   -0.049292   -0.584697
C    -0.907449   -0.866045    0.278270   -0.042929    0.112187    1.377362
N    -0.760767    0.501709   -0.156517    0.008991   -0.043522   -0.559311
C     0.423598    1.254507    0.038799   -0.022258    0.069637    0.780266
O    -2.041595   -1.373874    0.000755   -0.000909   -0.030377   -0.345659
O     0.394600    2.476770   -0.228418    0.003910   -0.008866   -0.201542
H     2.309587   -1.596907    0.240156    0.005818    0.009098    0.269720
H    -1.628678    1.048736   -0.075001   -0.017020    0.030925    0.342228
H     2.578844    0.868114    0.054508   -0.004371    0.029056    0.326398
11
* Frequency(17)  810.9467
C     1.590951    0.401709   -0.018171    0.020495   -0.044783   -0.497275
C     1.411753   -0.964168    0.136982    0.006640    0.017672    0.323905
N     0.242628   -1.627369    0.106899    0.021331   -0.049292   -0.584697
C    -0.902771   -0.878271    0.128174   -0.042929    0.112187    1.377362
N    -0.761746    0.506452   -0.095567    0.008991   -0.043522   -0.559311
C     0.426024    1.246919   -0.046229   -0.022258    0.069637    0.780266
O    -2.041496   -1.370564    0.038422   -0.000909   -0.030377   -0.345659
O     0.394174    2.477736   -0.206455    0.003910   -0.008866   -0.201542
H     2.308952   -1.597898    0.210764    0.005818    0.009098    0.269720
H    -1.626824    1.045366   -0.112294   -0.017020    0.030925    0.342228
H     2.579321    0.864948    0.018939   -0.004371    0.029056    0.326398
11
* Frequency(17)  810.9467
C     1.588589    0.406869    0.039123    0.020495   -0.044783   -0.497275
C     1.410988   -0.966204    0.099663    0.006640    0.017672    0.323905
N     0.240170   -1.621690    0.174266    0.021331   -0.049292   -0.584697
C    -0.897825   -0.891196   -0.030520   -0.042929    0.112187    1.377362
N    -0.762782    0.511466   -0.031125    0.008991   -0.043522   -0.559311
C     0.428588    1.238895   -0.136128   -0.022258    0.069637    0.780266
O    -2.041391   -1.367064    0.078248   -0.000909   -0.030377   -0.345659
O     0.393723    2.478758   -0.183234    0.003910   -0.008866   -0.201542
H     2.308282   -1.598947    0.179688    0.005818    0.009098    0.269720
H    -1.624863    1.041803   -0.151725   -0.017020    0.030925    0.342228
H     2.579824    0.861600   -0.018667   -0.004371    0.029056    0.326398
11
* Frequency(17)  810.9467
C     1.586356    0.411749    0.093313    0.020495   -0.044783   -0.497275
C     1.410264   -0.968130    0.064366    0.006640    0.017672    0.323905
N     0.237846   -1.616319    0.237982    0.021331   -0.049292   -0.584697
C    -0.893147   -0.903422   -0.180616   -0.042929    0.112187    1.377362
N    -0.763762    0.516209    0.029825    0.008991   -0.043522   -0.559311
C     0.431013    1.231307   -0.221157   -0.022258    0.069637    0.780266
O    -2.041292   -1.363754    0.115915   -0.000909   -0.030377   -0.345659
O     0.393297    2.479724   -0.161272    0.003910   -0.008866   -0.201542
H     2.307648   -1.599938    0.150296    0.005818    0.009098    0.269720
H    -1.623008    1.038433   -0.189018   -0.017020    0.030925    0.342228
H     2.580301    0.858434   -0.054236   -0.004371    0.029056    0.326398
11
* Frequency(17)  810.9467
C     1.584493    0.415820    0.138526    0.020495   -0.044783   -0.497275
C     1.409660   -0.969737    0.034916    0.006640    0.017672    0.323905
N     0.235906   -1.611837    0.291144    0.021331   -0.049292   -0.584697
C    -0.889244   -0.913622   -0.305849   -0.042929    0.112187    1.377362
N    -0.764580    0.520166    0.080678    0.008991   -0.043522   -0.559311
C     0.433037    1.224975   -0.292100   -0.022258    0.069637    0.780266
O    -2.041209   -1.360992    0.147343   -0.000909   -0.030377   -0.345659
O     0.392942    2.480530   -0.142947    0.003910   -0.008866   -0.201542
H     2.307119   -1.600765    0.125772    0.005818    0.009098    0.269720
H    -1.621460    1.035621   -0.220134   -0.017020    0.030925    0.342228
H     2.580698    0.855792   -0.083912   -0.004371    0.029056    0.326398
11
* Frequency(17)  810.9467
C     1.583201    0.418643    0.169863    0.020495   -0.044783   -0.497275
C     1.409242   -0.970850    0.014505    0.006640    0.017672    0.323905
N     0.234562   -1.608731    0.327990    0.021331   -0.049292   -0.584697
C    -0.886538   -0.920692   -0.392646   -0.042929    0.112187    1.377362
N    -0.765146    0.522908    0.115925    0.008991   -0.043522   -0.559311
C     0.434440    1.220587   -0.341270   -0.022258    0.069637    0.780266
O    -2.041152   -1.359077    0.169126   -0.000909   -0.030377   -0.345659
O     0.392695    2.481089   -0.130246    0.003910   -0.008866   -0.201542
H     2.306752   -1.601339    0.108775    0.005818    0.009098    0.269720
H    -1.620388    1.033672   -0.241700   -0.017020    0.030925    0.342228
H     2.580974    0.853961   -0.104481   -0.004371    0.029056    0.326398
11
* Frequency(17)  810.9467
C     1.582621    0.419909    0.183928    0.020495   -0.044783   -0.497275
C     1.409054   -0.971350    0.005343    0.006640    0.017672    0.323905
N     0.233959   -1.607336    0.344527    0.021331   -0.049292   -0.584697
C    -0.885324   -0.923865   -0.431603   -0.042929    0.112187    1.377362
N    -0.765400    0.524139    0.131744    0.008991   -0.043522   -0.559311
C     0.435069    1.218617   -0.363339   -0.022258    0.069637    0.780266
O    -2.041126   -1.358218    0.178902   -0.000909   -0.030377   -0.345659
O     0.392585    2.481339   -0.124546    0.003910   -0.008866   -0.201542
H     2.306588   -1.601596    0.101146    0.005818    0.009098    0.269720
H    -1.619906    1.032798   -0.251380   -0.017020    0.030925    0.342228
H     2.581097    0.853139   -0.113713   -0.004371    0.029056    0.326398
11
* Frequency(17)  810.9467
C     1.582816    0.419483    0.179196    0.020495   -0.044783   -0.497275
C     1.409117   -0.971182    0.008425    0.006640    0.017672    0.323905
N     0.234162   -1.607805    0.338964    0.021331   -0.049292   -0.584697
C    -0.885733   -0.922797   -0.418498   -0.042929    0.112187    1.377362
N    -0.765315    0.523725    0.126423    0.008991   -0.043522   -0.559311
C     0.434858    1.219280   -0.355915   -0.022258    0.069637    0.780266
O    -2.041135   -1.358507    0.175614   -0.000909   -0.030377   -0.345659
O     0.392622    2.481255   -0.126464    0.003910   -0.008866   -0.201542
H     2.306643   -1.601509    0.103713    0.005818    0.009098    0.269720
H    -1.620068    1.033092   -0.248124   -0.017020    0.030925    0.342228
H     2.581056    0.853416   -0.110607   -0.004371    0.029056    0.326398
11
* Frequency(17)  810.9467
C     1.583765    0.417410    0.156182    0.020495   -0.044783   -0.497275
C     1.409425   -0.970364    0.023416    0.006640    0.017672    0.323905
N     0.235149   -1.610087    0.311903    0.021331   -0.049292   -0.584697
C    -0.887720   -0.917605   -0.354752   -0.042929    0.112187    1.377362
N    -0.764899    0.521711    0.100537    0.008991   -0.043522   -0.559311
C     0.433827    1.222503   -0.319803   -0.022258    0.069637    0.780266
O    -2.041177   -1.359913    0.159616   -0.000909   -0.030377   -0.345659
O     0.392803    2.480845   -0.135791    0.003910   -0.008866   -0.201542
H     2.306912   -1.601088    0.116196    0.005818    0.009098    0.269720
H    -1.620856    1.034523   -0.232285   -0.017020    0.030925    0.342228
H     2.580853    0.854761   -0.095501   -0.004371    0.029056    0.326398
11
* Frequency(17)  810.9467
C     1.585364    0.413916    0.117377    0.020495   -0.044783   -0.497275
C     1.409943   -0.968985    0.048691    0.006640    0.017672    0.323905
N     0.236813   -1.613933    0.266277    0.021331   -0.049292   -0.584697
C    -0.891069   -0.908851   -0.247271   -0.042929    0.112187    1.377362
N    -0.764197    0.518315    0.056891    0.008991   -0.043522   -0.559311
C     0.432091    1.227937   -0.258916   -0.022258    0.069637    0.780266
O    -2.041248   -1.362284    0.132643   -0.000909   -0.030377   -0.345659
O     0.393108    2.480153   -0.151518    0.003910   -0.008866   -0.201542
H     2.307367   -1.600378    0.137243    0.005818    0.009098    0.269720
H    -1.622184    1.036936   -0.205580   -0.017020    0.030925    0.342228
H     2.580512    0.857028   -0.070031   -0.004371    0.029056    0.326398
11
* Frequency(17)  810.9467
C     1.587441    0.409378    0.066989    0.020495   -0.044783   -0.497275
C     1.410616   -0.967195    0.081513    0.006640    0.017672    0.323905
N     0.238975   -1.618928    0.207030    0.021331   -0.049292   -0.584697
C    -0.895419   -0.897483   -0.107703   -0.042929    0.112187    1.377362
N    -0.763286    0.513905    0.000217    0.008991   -0.043522   -0.559311
C     0.429835    1.234993   -0.179852   -0.022258    0.069637    0.780266
O    -2.041340   -1.365362    0.097617   -0.000909   -0.030377   -0.345659
O     0.393504    2.479254   -0.171941    0.003910   -0.008866   -0.201542
H     2.307956   -1.599456    0.164574    0.005818    0.009098    0.269720
H    -1.623909    1.040070   -0.170902   -0.017020    0.030925    0.342228
H     2.580069    0.859972   -0.036957   -0.004371    0.029056    0.326398
11
* Frequency(17)  810.9467
C     1.589770    0.404289    0.010476    0.020495   -0.044783   -0.497275
C     1.411370   -0.965186    0.118323    0.006640    0.017672    0.323905
N     0.241399   -1.624530    0.140582    0.021331   -0.049292   -0.584697
C    -0.900298   -0.884733    0.048827   -0.042929    0.112187    1.377362
N    -0.762264    0.508959   -0.063346    0.008991   -0.043522   -0.559311
C     0.427306    1.242907   -0.091179   -0.022258    0.069637    0.780266
O    -2.041444   -1.368814    0.058335   -0.000909   -0.030377   -0.345659
O     0.393949    2.478247   -0.194845    0.003910   -0.008866   -0.201542
H     2.308617   -1.598423    0.195226    0.005818    0.009098    0.269720
H    -1.625843    1.043584   -0.132009   -0.017020    0.030925    0.342228
H     2.579572    0.863274    0.000136   -0.004371    0.029056    0.326398
