11
* (null), Energy   -1000.0000000
C     1.356566    0.572472   -0.019574   -0.008182    0.260032   -0.021681
C     1.179217   -0.796685    0.088575    0.098796   -0.079731    0.009208
N     0.008210   -1.454494    0.110838    0.037959   -0.099287    0.009304
C    -1.131376   -0.714764    0.018532   -0.139225    0.215383   -0.021527
N    -0.995238    0.677642   -0.092617   -0.011942   -0.294377    0.024057
C     0.194158    1.409660   -0.120689   -0.285819   -0.060441   -0.002975
O    -2.273001   -1.200862    0.028059    0.077957    0.020375    0.000402
O     0.161758    2.645985   -0.224814    0.075240    0.088719   -0.005357
H     2.075560   -1.430341    0.165515   -0.243656   -0.591807    0.042275
H    -1.858608    1.212888   -0.161920    0.914365    1.182200   -0.071565
H     2.345944    1.032379   -0.030255    0.521182   -0.846294    0.084951
11
* Frequency(24) 1354.5806
C     1.355637    0.602023   -0.022038   -0.008182    0.260032   -0.021681
C     1.190445   -0.805746    0.089622    0.098796   -0.079731    0.009208
N     0.012524   -1.465778    0.111895    0.037959   -0.099287    0.009304
C    -1.147198   -0.690287    0.016085   -0.139225    0.215383   -0.021527
N    -0.996596    0.644188   -0.089883   -0.011942   -0.294377    0.024057
C     0.161676    1.402791   -0.121027   -0.285819   -0.060441   -0.002975
O    -2.264142   -1.198547    0.028104    0.077957    0.020375    0.000402
O     0.170309    2.656068   -0.225423    0.075240    0.088719   -0.005357
H     2.047869   -1.497597    0.170319   -0.243656   -0.591807    0.042275
H    -1.754695    1.347239   -0.170053    0.914365    1.182200   -0.071565
H     2.405174    0.936202   -0.020600    0.521182   -0.846294    0.084951
11
* Frequency(24) 1354.5806
C     1.354808    0.628372   -0.024235   -0.008182    0.260032   -0.021681
C     1.200456   -0.813825    0.090555    0.098796   -0.079731    0.009208
N     0.016370   -1.475838    0.112838    0.037959   -0.099287    0.009304
C    -1.161306   -0.668462    0.013904   -0.139225    0.215383   -0.021527
N    -0.997806    0.614359   -0.087445   -0.011942   -0.294377    0.024057
C     0.132714    1.396666   -0.121329   -0.285819   -0.060441   -0.002975
O    -2.256242   -1.196482    0.028145    0.077957    0.020375    0.000402
O     0.177933    2.665058   -0.225966    0.075240    0.088719   -0.005357
H     2.023180   -1.557564    0.174603   -0.243656   -0.591807    0.042275
H    -1.662043    1.467030   -0.177305    0.914365    1.182200   -0.071565
H     2.457985    0.850448   -0.011992    0.521182   -0.846294    0.084951
11
* Frequency(24) 1354.5806
C     1.354169    0.648663   -0.025926   -0.008182    0.260032   -0.021681
C     1.208165   -0.820047    0.091273    0.098796   -0.079731    0.009208
N     0.019332   -1.483586    0.113564    0.037959   -0.099287    0.009304
C    -1.172170   -0.651655    0.012224   -0.139225    0.215383   -0.021527
N    -0.998738    0.591388   -0.085568   -0.011942   -0.294377    0.024057
C     0.110410    1.391950   -0.121561   -0.285819   -0.060441   -0.002975
O    -2.250159   -1.194892    0.028177    0.077957    0.020375    0.000402
O     0.183804    2.671981   -0.226384    0.075240    0.088719   -0.005357
H     2.004166   -1.603745    0.177902   -0.243656   -0.591807    0.042275
H    -1.590692    1.559282   -0.182889    0.914365    1.182200   -0.071565
H     2.498655    0.784408   -0.005363    0.521182   -0.846294    0.084951
11
* Frequency(24) 1354.5806
C     1.353790    0.660698   -0.026930   -0.008182    0.260032   -0.021681
C     1.212738   -0.823737    0.091699    0.098796   -0.079731    0.009208
N     0.021089   -1.488181    0.113995    0.037959   -0.099287    0.009304
C    -1.178613   -0.641687    0.011228   -0.139225    0.215383   -0.021527
N    -0.999290    0.577763   -0.084455   -0.011942   -0.294377    0.024057
C     0.097182    1.389153   -0.121698   -0.285819   -0.060441   -0.002975
O    -2.246551   -1.193949    0.028195    0.077957    0.020375    0.000402
O     0.187286    2.676087   -0.226631    0.075240    0.088719   -0.005357
H     1.992889   -1.631135    0.179858   -0.243656   -0.591807    0.042275
H    -1.548373    1.613996   -0.186202    0.914365    1.182200   -0.071565
H     2.522776    0.745240   -0.001432    0.521182   -0.846294    0.084951
11
* Frequency(24) 1354.5806
C     1.353712    0.663172   -0.027136   -0.008182    0.260032   -0.021681
C     1.213678   -0.824495    0.091787    0.098796   -0.079731    0.009208
N     0.021450   -1.489126    0.114083    0.037959   -0.099287    0.009304
C    -1.179938   -0.639638    0.011023   -0.139225    0.215383   -0.021527
N    -0.999404    0.574962   -0.084226   -0.011942   -0.294377    0.024057
C     0.094463    1.388578   -0.121727   -0.285819   -0.060441   -0.002975
O    -2.245809   -1.193756    0.028199    0.077957    0.020375    0.000402
O     0.188002    2.676931   -0.226682    0.075240    0.088719   -0.005357
H     1.990571   -1.636766    0.180260   -0.243656   -0.591807    0.042275
H    -1.539673    1.625244   -0.186883    0.914365    1.182200   -0.071565
H     2.527735    0.737188   -0.000623    0.521182   -0.846294    0.084951
11
* Frequency(24) 1354.5806
C     1.353944    0.655817   -0.026523   -0.008182    0.260032   -0.021681
C     1.210883   -0.822240    0.091527    0.098796   -0.079731    0.009208
N     0.020377   -1.486318    0.113820    0.037959   -0.099287    0.009304
C    -1.176000   -0.645730    0.011632   -0.139225    0.215383   -0.021527
N    -0.999066    0.583289   -0.084906   -0.011942   -0.294377    0.024057
C     0.102547    1.390287   -0.121643   -0.285819   -0.060441   -0.002975
O    -2.248014   -1.194332    0.028188    0.077957    0.020375    0.000402
O     0.185874    2.674422   -0.226531    0.075240    0.088719   -0.005357
H     1.997463   -1.620027    0.179065   -0.243656   -0.591807    0.042275
H    -1.565535    1.591807   -0.184858    0.914365    1.182200   -0.071565
H     2.512994    0.761124   -0.003026    0.521182   -0.846294    0.084951
11
* Frequency(24) 1354.5806
C     1.354460    0.639431   -0.025157   -0.008182    0.260032   -0.021681
C     1.204657   -0.817216    0.090946    0.098796   -0.079731    0.009208
N     0.017984   -1.480061    0.113234    0.037959   -0.099287    0.009304
C    -1.167227   -0.659302    0.012988   -0.139225    0.215383   -0.021527
N    -0.998314    0.601839   -0.086422   -0.011942   -0.294377    0.024057
C     0.120558    1.394096   -0.121455   -0.285819   -0.060441   -0.002975
O    -2.252927   -1.195616    0.028162    0.077957    0.020375    0.000402
O     0.181133    2.668831   -0.226193    0.075240    0.088719   -0.005357
H     2.012817   -1.582733    0.176401   -0.243656   -0.591807    0.042275
H    -1.623156    1.517308   -0.180349    0.914365    1.182200   -0.071565
H     2.480150    0.814456   -0.008380    0.521182   -0.846294    0.084951
11
* Frequency(24) 1354.5806
C     1.355203    0.615788   -0.023185   -0.008182    0.260032   -0.021681
C     1.195675   -0.809966    0.090109    0.098796   -0.079731    0.009208
N     0.014533   -1.471034    0.112388    0.037959   -0.099287    0.009304
C    -1.154568   -0.678885    0.014946   -0.139225    0.215383   -0.021527
N    -0.997228    0.628605   -0.088610   -0.011942   -0.294377    0.024057
C     0.146545    1.399591   -0.121185   -0.285819   -0.060441   -0.002975
O    -2.260015   -1.197468    0.028126    0.077957    0.020375    0.000402
O     0.174292    2.660764   -0.225706    0.075240    0.088719   -0.005357
H     2.034971   -1.528925    0.172557   -0.243656   -0.591807    0.042275
H    -1.706292    1.409820   -0.173842    0.914365    1.182200   -0.071565
H     2.432764    0.891402   -0.016103    0.521182   -0.846294    0.084951
11
* Frequency(24) 1354.5806
C     1.356095    0.587452   -0.020823   -0.008182    0.260032   -0.021681
C     1.184909   -0.801278    0.089106    0.098796   -0.079731    0.009208
N     0.010397   -1.460214    0.111374    0.037959   -0.099287    0.009304
C    -1.139396   -0.702356    0.017292   -0.139225    0.215383   -0.021527
N    -0.995926    0.660684   -0.091231   -0.011942   -0.294377    0.024057
C     0.177692    1.406178   -0.120860   -0.285819   -0.060441   -0.002975
O    -2.268510   -1.199689    0.028082    0.077957    0.020375    0.000402
O     0.166093    2.651096   -0.225123    0.075240    0.088719   -0.005357
H     2.061523   -1.464434    0.167950   -0.243656   -0.591807    0.042275
H    -1.805933    1.280992   -0.166043    0.914365    1.182200   -0.071565
H     2.375969    0.983626   -0.025361    0.521182   -0.846294    0.084951
11
* Frequency(24) 1354.5806
C     1.357038    0.557492   -0.018325   -0.008182    0.260032   -0.021681
C     1.173526   -0.792091    0.088045    0.098796   -0.079731    0.009208
N     0.006023   -1.448774    0.110302    0.037959   -0.099287    0.009304
C    -1.123355   -0.727172    0.019772   -0.139225    0.215383   -0.021527
N    -0.994550    0.694601   -0.094003   -0.011942   -0.294377    0.024057
C     0.210623    1.413141   -0.120517   -0.285819   -0.060441   -0.002975
O    -2.277492   -1.202036    0.028036    0.077957    0.020375    0.000402
O     0.157424    2.640875   -0.224505    0.075240    0.088719   -0.005357
H     2.089596   -1.396248    0.163079   -0.243656   -0.591807    0.042275
H    -1.911283    1.144783   -0.157797    0.914365    1.182200   -0.071565
H     2.315920    1.081133   -0.035148    0.521182   -0.846294    0.084951
11
* Frequency(24) 1354.5806
C     1.357930    0.529155   -0.015962   -0.008182    0.260032   -0.021681
C     1.162760   -0.783403    0.087041    0.098796   -0.079731    0.009208
N     0.001887   -1.437955    0.109288    0.037959   -0.099287    0.009304
C    -1.108183   -0.750643    0.022118   -0.139225    0.215383   -0.021527
N    -0.993249    0.726680   -0.096624   -0.011942   -0.294377    0.024057
C     0.241770    1.419728   -0.120193   -0.285819   -0.060441   -0.002975
O    -2.285987   -1.204257    0.027992    0.077957    0.020375    0.000402
O     0.149224    2.631206   -0.223922    0.075240    0.088719   -0.005357
H     2.116148   -1.331757    0.158472   -0.243656   -0.591807    0.042275
H    -2.010925    1.015955   -0.149999    0.914365    1.182200   -0.071565
H     2.259125    1.173356   -0.044406    0.521182   -0.846294    0.084951
11
* Frequency(24) 1354.5806
C     1.358673    0.505513   -0.013991   -0.008182    0.260032   -0.021681
C     1.153777   -0.776154    0.086204    0.098796   -0.079731    0.009208
N    -0.001564   -1.428928    0.108442    0.037959   -0.099287    0.009304
C    -1.095525   -0.770226    0.024075   -0.139225    0.215383   -0.021527
N    -0.992163    0.753446   -0.098812   -0.011942   -0.294377    0.024057
C     0.267757    1.425223   -0.119923   -0.285819   -0.060441   -0.002975
O    -2.293075   -1.206109    0.027955    0.077957    0.020375    0.000402
O     0.142384    2.623140   -0.223435    0.075240    0.088719   -0.005357
H     2.138302   -1.277948    0.154628   -0.243656   -0.591807    0.042275
H    -2.094060    0.908467   -0.143492    0.914365    1.182200   -0.071565
H     2.211738    1.250303   -0.052130    0.521182   -0.846294    0.084951
11
* Frequency(24) 1354.5806
C     1.359189    0.489126   -0.012624   -0.008182    0.260032   -0.021681
C     1.147551   -0.771129    0.085624    0.098796   -0.079731    0.009208
N    -0.003957   -1.422671    0.107856    0.037959   -0.099287    0.009304
C    -1.086751   -0.783799    0.025431   -0.139225    0.215383   -0.021527
N    -0.991411    0.771996   -0.100328   -0.011942   -0.294377    0.024057
C     0.285769    1.429032   -0.119735   -0.285819   -0.060441   -0.002975
O    -2.297988   -1.207393    0.027930    0.077957    0.020375    0.000402
O     0.137642    2.617549   -0.223097    0.075240    0.088719   -0.005357
H     2.153656   -1.240654    0.151964   -0.243656   -0.591807    0.042275
H    -2.151681    0.833968   -0.138982    0.914365    1.182200   -0.071565
H     2.178895    1.303634   -0.057483    0.521182   -0.846294    0.084951
11
* Frequency(24) 1354.5806
C     1.359421    0.481771   -0.012011   -0.008182    0.260032   -0.021681
C     1.144757   -0.768874    0.085364    0.098796   -0.079731    0.009208
N    -0.005030   -1.419863    0.107593    0.037959   -0.099287    0.009304
C    -1.082813   -0.789891    0.026040   -0.139225    0.215383   -0.021527
N    -0.991073    0.780323   -0.101008   -0.011942   -0.294377    0.024057
C     0.293853    1.430741   -0.119651   -0.285819   -0.060441   -0.002975
O    -2.300193   -1.207969    0.027919    0.077957    0.020375    0.000402
O     0.135514    2.615040   -0.222946    0.075240    0.088719   -0.005357
H     2.160548   -1.223916    0.150769   -0.243656   -0.591807    0.042275
H    -2.177543    0.800531   -0.136958    0.914365    1.182200   -0.071565
H     2.164154    1.327571   -0.059886    0.521182   -0.846294    0.084951
11
* Frequency(24) 1354.5806
C     1.359343    0.484245   -0.012217   -0.008182    0.260032   -0.021681
C     1.145697   -0.769633    0.085451    0.098796   -0.079731    0.009208
N    -0.004669   -1.420807    0.107681    0.037959   -0.099287    0.009304
C    -1.084138   -0.787841    0.025835   -0.139225    0.215383   -0.021527
N    -0.991186    0.777522   -0.100779   -0.011942   -0.294377    0.024057
C     0.291133    1.430166   -0.119679   -0.285819   -0.060441   -0.002975
O    -2.299451   -1.207775    0.027922    0.077957    0.020375    0.000402
O     0.136230    2.615884   -0.222997    0.075240    0.088719   -0.005357
H     2.158230   -1.229546    0.151171   -0.243656   -0.591807    0.042275
H    -2.168843    0.811779   -0.137639    0.914365    1.182200   -0.071565
H     2.169112    1.319519   -0.059078    0.521182   -0.846294    0.084951
11
* Frequency(24) 1354.5806
C     1.358964    0.496280   -0.013221   -0.008182    0.260032   -0.021681
C     1.150269   -0.773323    0.085877    0.098796   -0.079731    0.009208
N    -0.002912   -1.425402    0.108112    0.037959   -0.099287    0.009304
C    -1.090582   -0.777873    0.024839   -0.139225    0.215383   -0.021527
N    -0.991739    0.763897   -0.099666   -0.011942   -0.294377    0.024057
C     0.277905    1.427369   -0.119817   -0.285819   -0.060441   -0.002975
O    -2.295843   -1.206832    0.027941    0.077957    0.020375    0.000402
O     0.139712    2.619990   -0.223244    0.075240    0.088719   -0.005357
H     2.146953   -1.256936    0.153128   -0.243656   -0.591807    0.042275
H    -2.126525    0.866493   -0.140951    0.914365    1.182200   -0.071565
H     2.193234    1.280351   -0.055146    0.521182   -0.846294    0.084951
11
* Frequency(24) 1354.5806
C     1.358325    0.516571   -0.014913   -0.008182    0.260032   -0.021681
C     1.157979   -0.779544    0.086596    0.098796   -0.079731    0.009208
N     0.000050   -1.433150    0.108838    0.037959   -0.099287    0.009304
C    -1.101446   -0.761066    0.023159   -0.139225    0.215383   -0.021527
N    -0.992671    0.740926   -0.097789   -0.011942   -0.294377    0.024057
C     0.255601    1.422653   -0.120049   -0.285819   -0.060441   -0.002975
O    -2.289760   -1.205243    0.027972    0.077957    0.020375    0.000402
O     0.145583    2.626913   -0.223662    0.075240    0.088719   -0.005357
H     2.127939   -1.303117    0.156426   -0.243656   -0.591807    0.042275
H    -2.055173    0.958745   -0.146535    0.914365    1.182200   -0.071565
H     2.233904    1.214311   -0.048517    0.521182   -0.846294    0.084951
11
* Frequency(24) 1354.5806
C     1.357496    0.542920   -0.017110   -0.008182    0.260032   -0.021681
C     1.167989   -0.787624    0.087529    0.098796   -0.079731    0.009208
N     0.003896   -1.443211    0.109781    0.037959   -0.099287    0.009304
C    -1.115554   -0.739241    0.020978   -0.139225    0.215383   -0.021527
N    -0.993881    0.711097   -0.095351   -0.011942   -0.294377    0.024057
C     0.226639    1.416528   -0.120351   -0.285819   -0.060441   -0.002975
O    -2.281860   -1.203178    0.028013    0.077957    0.020375    0.000402
O     0.153207    2.635903   -0.224205    0.075240    0.088719   -0.005357
H     2.103250   -1.363085    0.160710   -0.243656   -0.591807    0.042275
H    -1.962521    1.078537   -0.153787    0.914365    1.182200   -0.071565
H     2.286715    1.128556   -0.039909    0.521182   -0.846294    0.084951
11
* Frequency(24) 1354.5806
C     1.356566    0.572472   -0.019574   -0.008182    0.260032   -0.021681
C     1.179217   -0.796685    0.088575    0.098796   -0.079731    0.009208
N     0.008210   -1.454494    0.110838    0.037959   -0.099287    0.009304
C    -1.131376   -0.714764    0.018532   -0.139225    0.215383   -0.021527
N    -0.995238    0.677642   -0.092617   -0.011942   -0.294377    0.024057
C     0.194158    1.409660   -0.120689   -0.285819   -0.060441   -0.002975
O    -2.273001   -1.200862    0.028059    0.077957    0.020375    0.000402
O     0.161758    2.645985   -0.224814    0.075240    0.088719   -0.005357
H     2.075560   -1.430341    0.165515   -0.243656   -0.591807    0.042275
H    -1.858608    1.212888   -0.161920    0.914365    1.182200   -0.071565
H     2.345944    1.032379   -0.030255    0.521182   -0.846294    0.084951
