11
* (null), Energy   -1000.0000000
C     1.356566    0.572472   -0.019574   -0.142405    0.374374   -0.034822
C     1.179217   -0.796685    0.088575    0.003916   -0.060515    0.005240
N     0.008210   -1.454494    0.110838   -0.217917   -0.007703   -0.005368
C    -1.131376   -0.714764    0.018532    0.982880    0.217477    0.008442
N    -0.995238    0.677642   -0.092617   -0.115625    0.126101   -0.013661
C     0.194158    1.409660   -0.120689    0.252397   -1.245886    0.110445
O    -2.273001   -1.200862    0.028059   -0.494052   -0.205986    0.003856
O     0.161758    2.645985   -0.224814   -0.037437    0.674018   -0.057202
H     2.075560   -1.430341    0.165515    0.027972    0.052828   -0.003804
H    -1.858608    1.212888   -0.161920   -0.230477   -0.103217    0.002889
H     2.345944    1.032379   -0.030255    0.204162   -0.509123    0.047916
11
* Frequency(29) 1724.0467
C     1.340383    0.615017   -0.023531   -0.142405    0.374374   -0.034822
C     1.179662   -0.803562    0.089171    0.003916   -0.060515    0.005240
N    -0.016555   -1.455370    0.110228   -0.217917   -0.007703   -0.005368
C    -1.019676   -0.690049    0.019491    0.982880    0.217477    0.008442
N    -1.008378    0.691973   -0.094169   -0.115625    0.126101   -0.013661
C     0.222841    1.268071   -0.108137    0.252397   -1.245886    0.110445
O    -2.329147   -1.224272    0.028497   -0.494052   -0.205986    0.003856
O     0.157504    2.722584   -0.231315   -0.037437    0.674018   -0.057202
H     2.078738   -1.424337    0.165082    0.027972    0.052828   -0.003804
H    -1.884801    1.201158   -0.161592   -0.230477   -0.103217    0.002889
H     2.369146    0.974520   -0.024809    0.204162   -0.509123    0.047916
11
* Frequency(29) 1724.0467
C     1.325953    0.652953   -0.027060   -0.142405    0.374374   -0.034822
C     1.180059   -0.809694    0.089702    0.003916   -0.060515    0.005240
N    -0.038636   -1.456150    0.109684   -0.217917   -0.007703   -0.005368
C    -0.920082   -0.668012    0.020346    0.982880    0.217477    0.008442
N    -1.020095    0.704751   -0.095554   -0.115625    0.126101   -0.013661
C     0.248417    1.141826   -0.096946    0.252397   -1.245886    0.110445
O    -2.379210   -1.245144    0.028888   -0.494052   -0.205986    0.003856
O     0.153710    2.790882   -0.237111   -0.037437    0.674018   -0.057202
H     2.081573   -1.418984    0.164697    0.027972    0.052828   -0.003804
H    -1.908155    1.190699   -0.161299   -0.230477   -0.103217    0.002889
H     2.389834    0.922931   -0.019954    0.204162   -0.509123    0.047916
11
* Frequency(29) 1724.0467
C     1.314841    0.682166   -0.029777   -0.142405    0.374374   -0.034822
C     1.180365   -0.814416    0.090111    0.003916   -0.060515    0.005240
N    -0.055641   -1.456751    0.109265   -0.217917   -0.007703   -0.005368
C    -0.843384   -0.651042    0.021005    0.982880    0.217477    0.008442
N    -1.029117    0.714591   -0.096620   -0.115625    0.126101   -0.013661
C     0.268112    1.044605   -0.088328    0.252397   -1.245886    0.110445
O    -2.417762   -1.261218    0.029189   -0.494052   -0.205986    0.003856
O     0.150789    2.843478   -0.241575   -0.037437    0.674018   -0.057202
H     2.083756   -1.414862    0.164400    0.027972    0.052828   -0.003804
H    -1.926140    1.182644   -0.161074   -0.230477   -0.103217    0.002889
H     2.405765    0.883202   -0.016215    0.204162   -0.509123    0.047916
11
* Frequency(29) 1724.0467
C     1.308250    0.699493   -0.031388   -0.142405    0.374374   -0.034822
C     1.180546   -0.817217    0.090353    0.003916   -0.060515    0.005240
N    -0.065727   -1.457108    0.109017   -0.217917   -0.007703   -0.005368
C    -0.797894   -0.640976    0.021396    0.982880    0.217477    0.008442
N    -1.034469    0.720427   -0.097252   -0.115625    0.126101   -0.013661
C     0.279794    0.986943   -0.083216    0.252397   -1.245886    0.110445
O    -2.440628   -1.270751    0.029367   -0.494052   -0.205986    0.003856
O     0.149056    2.874673   -0.244222   -0.037437    0.674018   -0.057202
H     2.085050   -1.412417    0.164224    0.027972    0.052828   -0.003804
H    -1.936807    1.177867   -0.160940   -0.230477   -0.103217    0.002889
H     2.415214    0.859639   -0.013997    0.204162   -0.509123    0.047916
11
* Frequency(29) 1724.0467
C     1.306895    0.703055   -0.031720   -0.142405    0.374374   -0.034822
C     1.180583   -0.817793    0.090403    0.003916   -0.060515    0.005240
N    -0.067800   -1.457181    0.108966   -0.217917   -0.007703   -0.005368
C    -0.788543   -0.638907    0.021476    0.982880    0.217477    0.008442
N    -1.035569    0.721627   -0.097382   -0.115625    0.126101   -0.013661
C     0.282195    0.975089   -0.082165    0.252397   -1.245886    0.110445
O    -2.445329   -1.272711    0.029404   -0.494052   -0.205986    0.003856
O     0.148700    2.881086   -0.244766   -0.037437    0.674018   -0.057202
H     2.085316   -1.411914    0.164188    0.027972    0.052828   -0.003804
H    -1.938999    1.176885   -0.160912   -0.230477   -0.103217    0.002889
H     2.417157    0.854795   -0.013541    0.204162   -0.509123    0.047916
11
* Frequency(29) 1724.0467
C     1.310923    0.692466   -0.030735   -0.142405    0.374374   -0.034822
C     1.180472   -0.816081    0.090255    0.003916   -0.060515    0.005240
N    -0.061637   -1.456963    0.109117   -0.217917   -0.007703   -0.005368
C    -0.816342   -0.645058    0.021238    0.982880    0.217477    0.008442
N    -1.032298    0.718061   -0.096996   -0.115625    0.126101   -0.013661
C     0.275056    1.010327   -0.085289    0.252397   -1.245886    0.110445
O    -2.431355   -1.266885    0.029295   -0.494052   -0.205986    0.003856
O     0.149759    2.862022   -0.243148   -0.037437    0.674018   -0.057202
H     2.084525   -1.413408    0.164295    0.027972    0.052828   -0.003804
H    -1.932481    1.179804   -0.160994   -0.230477   -0.103217    0.002889
H     2.411382    0.869195   -0.014897    0.204162   -0.509123    0.047916
11
* Frequency(29) 1724.0467
C     1.319897    0.668874   -0.028540   -0.142405    0.374374   -0.034822
C     1.180226   -0.812268    0.089924    0.003916   -0.060515    0.005240
N    -0.047904   -1.456478    0.109456   -0.217917   -0.007703   -0.005368
C    -0.878281   -0.658763    0.020706    0.982880    0.217477    0.008442
N    -1.025012    0.710114   -0.096135   -0.115625    0.126101   -0.013661
C     0.259151    1.088840   -0.092249    0.252397   -1.245886    0.110445
O    -2.400221   -1.253904    0.029052   -0.494052   -0.205986    0.003856
O     0.152118    2.819547   -0.239544   -0.037437    0.674018   -0.057202
H     2.082762   -1.416737    0.164535    0.027972    0.052828   -0.003804
H    -1.917957    1.186309   -0.161176   -0.230477   -0.103217    0.002889
H     2.398517    0.901278   -0.017916    0.204162   -0.509123    0.047916
11
* Frequency(29) 1724.0467
C     1.332844    0.634836   -0.025374   -0.142405    0.374374   -0.034822
C     1.179869   -0.806765    0.089448    0.003916   -0.060515    0.005240
N    -0.028091   -1.455777    0.109944   -0.217917   -0.007703   -0.005368
C    -0.967646   -0.678536    0.019938    0.982880    0.217477    0.008442
N    -1.014499    0.698649   -0.094893   -0.115625    0.126101   -0.013661
C     0.236202    1.202118   -0.102291    0.252397   -1.245886    0.110445
O    -2.355301   -1.235176    0.028701   -0.494052   -0.205986    0.003856
O     0.155522    2.758264   -0.234343   -0.037437    0.674018   -0.057202
H     2.080219   -1.421541    0.164881    0.027972    0.052828   -0.003804
H    -1.897001    1.195694   -0.161439   -0.230477   -0.103217    0.002889
H     2.379954    0.947569   -0.022273    0.204162   -0.509123    0.047916
11
* Frequency(29) 1724.0467
C     1.348363    0.594039   -0.021580   -0.142405    0.374374   -0.034822
C     1.179443   -0.800171    0.088877    0.003916   -0.060515    0.005240
N    -0.004344   -1.454938    0.110529   -0.217917   -0.007703   -0.005368
C    -1.074754   -0.702236    0.019018    0.982880    0.217477    0.008442
N    -1.001899    0.684907   -0.093404   -0.115625    0.126101   -0.013661
C     0.208698    1.337886   -0.114326    0.252397   -1.245886    0.110445
O    -2.301462   -1.212729    0.028281   -0.494052   -0.205986    0.003856
O     0.159602    2.684814   -0.228109   -0.037437    0.674018   -0.057202
H     2.077171   -1.427297    0.165295    0.027972    0.052828   -0.003804
H    -1.871885    1.206942   -0.161754   -0.230477   -0.103217    0.002889
H     2.357706    1.003050   -0.027494    0.204162   -0.509123    0.047916
11
* Frequency(29) 1724.0467
C     1.364770    0.550905   -0.017568   -0.142405    0.374374   -0.034822
C     1.178992   -0.793198    0.088273    0.003916   -0.060515    0.005240
N     0.020764   -1.454050    0.111147   -0.217917   -0.007703   -0.005368
C    -1.187998   -0.727293    0.018045    0.982880    0.217477    0.008442
N    -0.988577    0.670378   -0.091830   -0.115625    0.126101   -0.013661
C     0.179617    1.481433   -0.127051    0.252397   -1.245886    0.110445
O    -2.244540   -1.188996    0.027837   -0.494052   -0.205986    0.003856
O     0.163915    2.607157   -0.221519   -0.037437    0.674018   -0.057202
H     2.073948   -1.433384    0.165734    0.027972    0.052828   -0.003804
H    -1.845331    1.218834   -0.162087   -0.230477   -0.103217    0.002889
H     2.334183    1.061709   -0.033015    0.204162   -0.509123    0.047916
11
* Frequency(29) 1724.0467
C     1.380289    0.510108   -0.013773   -0.142405    0.374374   -0.034822
C     1.178565   -0.786604    0.087702    0.003916   -0.060515    0.005240
N     0.044511   -1.453211    0.111732   -0.217917   -0.007703   -0.005368
C    -1.295106   -0.750992    0.017125    0.982880    0.217477    0.008442
N    -0.975977    0.656636   -0.090341   -0.115625    0.126101   -0.013661
C     0.152113    1.617201   -0.139087    0.252397   -1.245886    0.110445
O    -2.190701   -1.166549    0.027416   -0.494052   -0.205986    0.003856
O     0.167994    2.533706   -0.215285   -0.037437    0.674018   -0.057202
H     2.070900   -1.439141    0.166148    0.027972    0.052828   -0.003804
H    -1.820215    1.230082   -0.162401   -0.230477   -0.103217    0.002889
H     2.311935    1.117190   -0.038237    0.204162   -0.509123    0.047916
11
* Frequency(29) 1724.0467
C     1.393236    0.476069   -0.010607   -0.142405    0.374374   -0.034822
C     1.178209   -0.781102    0.087226    0.003916   -0.060515    0.005240
N     0.064324   -1.452511    0.112220   -0.217917   -0.007703   -0.005368
C    -1.384471   -0.770765    0.016358    0.982880    0.217477    0.008442
N    -0.965465    0.645171   -0.089099   -0.115625    0.126101   -0.013661
C     0.129164    1.730479   -0.149129    0.252397   -1.245886    0.110445
O    -2.145781   -1.147820    0.027066   -0.494052   -0.205986    0.003856
O     0.171398    2.472424   -0.210084   -0.037437    0.674018   -0.057202
H     2.068357   -1.443944    0.166494    0.027972    0.052828   -0.003804
H    -1.799260    1.239466   -0.162664   -0.230477   -0.103217    0.002889
H     2.293372    1.163480   -0.042593    0.204162   -0.509123    0.047916
11
* Frequency(29) 1724.0467
C     1.402210    0.452477   -0.008412   -0.142405    0.374374   -0.034822
C     1.177962   -0.777288    0.086896    0.003916   -0.060515    0.005240
N     0.078057   -1.452025    0.112559   -0.217917   -0.007703   -0.005368
C    -1.446409   -0.784470    0.015826    0.982880    0.217477    0.008442
N    -0.958178    0.637224   -0.088238   -0.115625    0.126101   -0.013661
C     0.113259    1.808992   -0.156089    0.252397   -1.245886    0.110445
O    -2.114647   -1.134840    0.026823   -0.494052   -0.205986    0.003856
O     0.173757    2.429949   -0.206480   -0.037437    0.674018   -0.057202
H     2.066594   -1.447273    0.166734    0.027972    0.052828   -0.003804
H    -1.784736    1.245971   -0.162846   -0.230477   -0.103217    0.002889
H     2.280506    1.195564   -0.045613    0.204162   -0.509123    0.047916
11
* Frequency(29) 1724.0467
C     1.406238    0.441888   -0.007428   -0.142405    0.374374   -0.034822
C     1.177851   -0.775577    0.086748    0.003916   -0.060515    0.005240
N     0.084220   -1.451807    0.112710   -0.217917   -0.007703   -0.005368
C    -1.474209   -0.790621    0.015587    0.982880    0.217477    0.008442
N    -0.954908    0.633658   -0.087852   -0.115625    0.126101   -0.013661
C     0.106120    1.844230   -0.159212    0.252397   -1.245886    0.110445
O    -2.100673   -1.129014    0.026714   -0.494052   -0.205986    0.003856
O     0.174816    2.410885   -0.204862   -0.037437    0.674018   -0.057202
H     2.065803   -1.448767    0.166841    0.027972    0.052828   -0.003804
H    -1.778217    1.248890   -0.162928   -0.230477   -0.103217    0.002889
H     2.274732    1.209964   -0.046968    0.204162   -0.509123    0.047916
11
* Frequency(29) 1724.0467
C     1.404883    0.445450   -0.007759   -0.142405    0.374374   -0.034822
C     1.177888   -0.776152    0.086797    0.003916   -0.060515    0.005240
N     0.082147   -1.451881    0.112659   -0.217917   -0.007703   -0.005368
C    -1.464857   -0.788552    0.015667    0.982880    0.217477    0.008442
N    -0.956008    0.634858   -0.087982   -0.115625    0.126101   -0.013661
C     0.108522    1.832376   -0.158162    0.252397   -1.245886    0.110445
O    -2.105374   -1.130974    0.026750   -0.494052   -0.205986    0.003856
O     0.174460    2.417298   -0.205406   -0.037437    0.674018   -0.057202
H     2.066069   -1.448265    0.166805    0.027972    0.052828   -0.003804
H    -1.780410    1.247908   -0.162900   -0.230477   -0.103217    0.002889
H     2.276674    1.205120   -0.046512    0.204162   -0.509123    0.047916
11
* Frequency(29) 1724.0467
C     1.398292    0.462777   -0.009370   -0.142405    0.374374   -0.034822
C     1.178070   -0.778953    0.087040    0.003916   -0.060515    0.005240
N     0.072061   -1.452237    0.112411   -0.217917   -0.007703   -0.005368
C    -1.419368   -0.778487    0.016058    0.982880    0.217477    0.008442
N    -0.961359    0.640694   -0.088614   -0.115625    0.126101   -0.013661
C     0.120203    1.774714   -0.153050    0.252397   -1.245886    0.110445
O    -2.128240   -1.140507    0.026929   -0.494052   -0.205986    0.003856
O     0.172727    2.448493   -0.208053   -0.037437    0.674018   -0.057202
H     2.067363   -1.445820    0.166629    0.027972    0.052828   -0.003804
H    -1.791077    1.243131   -0.162767   -0.230477   -0.103217    0.002889
H     2.286123    1.181557   -0.044294    0.204162   -0.509123    0.047916
11
* Frequency(29) 1724.0467
C     1.387180    0.491991   -0.012088   -0.142405    0.374374   -0.034822
C     1.178375   -0.783675    0.087449    0.003916   -0.060515    0.005240
N     0.055056   -1.452838    0.111992   -0.217917   -0.007703   -0.005368
C    -1.342670   -0.761516    0.016717    0.982880    0.217477    0.008442
N    -0.970382    0.650534   -0.089680   -0.115625    0.126101   -0.013661
C     0.139899    1.677493   -0.144432    0.252397   -1.245886    0.110445
O    -2.166792   -1.156581    0.027230   -0.494052   -0.205986    0.003856
O     0.169806    2.501089   -0.212517   -0.037437    0.674018   -0.057202
H     2.069546   -1.441697    0.166332    0.027972    0.052828   -0.003804
H    -1.809061    1.235077   -0.162541   -0.230477   -0.103217    0.002889
H     2.302055    1.141828   -0.040555    0.204162   -0.509123    0.047916
11
* Frequency(29) 1724.0467
C     1.372750    0.529926   -0.015616   -0.142405    0.374374   -0.034822
C     1.178772   -0.789807    0.087980    0.003916   -0.060515    0.005240
N     0.032975   -1.453619    0.111448   -0.217917   -0.007703   -0.005368
C    -1.243075   -0.739479    0.017572    0.982880    0.217477    0.008442
N    -0.982098    0.663312   -0.091064   -0.115625    0.126101   -0.013661
C     0.165474    1.551248   -0.133240    0.252397   -1.245886    0.110445
O    -2.216855   -1.177453    0.027621   -0.494052   -0.205986    0.003856
O     0.166013    2.569387   -0.218313   -0.037437    0.674018   -0.057202
H     2.072381   -1.436344    0.165947    0.027972    0.052828   -0.003804
H    -1.832416    1.224618   -0.162249   -0.230477   -0.103217    0.002889
H     2.322742    1.090238   -0.035700    0.204162   -0.509123    0.047916
11
* Frequency(29) 1724.0467
C     1.356566    0.572472   -0.019574   -0.142405    0.374374   -0.034822
C     1.179217   -0.796685    0.088575    0.003916   -0.060515    0.005240
N     0.008210   -1.454494    0.110838   -0.217917   -0.007703   -0.005368
C    -1.131376   -0.714764    0.018532    0.982880    0.217477    0.008442
N    -0.995238    0.677642   -0.092617   -0.115625    0.126101   -0.013661
C     0.194158    1.409660   -0.120689    0.252397   -1.245886    0.110445
O    -2.273001   -1.200862    0.028059   -0.494052   -0.205986    0.003856
O     0.161758    2.645985   -0.224814   -0.037437    0.674018   -0.057202
H     2.075560   -1.430341    0.165515    0.027972    0.052828   -0.003804
H    -1.858608    1.212888   -0.161920   -0.230477   -0.103217    0.002889
H     2.345944    1.032379   -0.030255    0.204162   -0.509123    0.047916
