11
* (null), Energy   -1000.0000000
C     1.589770    0.404289    0.010476    0.322130   -0.095859    0.016085
C     1.411370   -0.965186    0.118323    0.124919   -0.182165    0.021564
N     0.241399   -1.624530    0.140582    0.100625   -0.296069    0.023583
C    -0.900298   -0.884733    0.048827    0.244206    0.017310    0.004711
N    -0.762264    0.508959   -0.063346    0.576490   -0.294316    0.045587
C     0.427306    1.242907   -0.091179    0.183346   -0.125403    0.013269
O    -2.041444   -1.368814    0.058335   -0.176959    1.015316   -0.090044
O     0.393949    2.478247   -0.194845   -1.145897   -0.158959   -0.019711
H     2.308617   -1.598423    0.195226    0.118688   -0.187985    0.028373
H    -1.625843    1.043584   -0.132009    0.609700   -0.263571    0.047708
H     2.579572    0.863274    0.000136    0.437487   -0.335838    0.041920
11
* Frequency(8)  395.3768
C     1.626379    0.393395    0.012304    0.322130   -0.095859    0.016085
C     1.425567   -0.985889    0.120773    0.124919   -0.182165    0.021564
N     0.252834   -1.658176    0.143262    0.100625   -0.296069    0.023583
C    -0.872545   -0.882766    0.049362    0.244206    0.017310    0.004711
N    -0.696749    0.475511   -0.058165    0.576490   -0.294316    0.045587
C     0.448142    1.228656   -0.089671    0.183346   -0.125403    0.013269
O    -2.061554   -1.253428    0.048102   -0.176959    1.015316   -0.090044
O     0.263723    2.460182   -0.197085   -1.145897   -0.158959   -0.019711
H     2.322106   -1.619786    0.198450    0.118688   -0.187985    0.028373
H    -1.556554    1.013631   -0.126588    0.609700   -0.263571    0.047708
H     2.629291    0.825108    0.004900    0.437487   -0.335838    0.041920
11
* Frequency(8)  395.3768
C     1.659020    0.383681    0.013934    0.322130   -0.095859    0.016085
C     1.438225   -1.004347    0.122959    0.124919   -0.182165    0.021564
N     0.263031   -1.688177    0.145652    0.100625   -0.296069    0.023583
C    -0.847800   -0.881012    0.049840    0.244206    0.017310    0.004711
N    -0.638334    0.445688   -0.053546    0.576490   -0.294316    0.045587
C     0.466721    1.215949   -0.088326    0.183346   -0.125403    0.013269
O    -2.079485   -1.150547    0.038978   -0.176959    1.015316   -0.090044
O     0.147610    2.444075   -0.199082   -1.145897   -0.158959   -0.019711
H     2.334132   -1.638834    0.201325    0.118688   -0.187985    0.028373
H    -1.494773    0.986924   -0.121754    0.609700   -0.263571    0.047708
H     2.673621    0.791078    0.009148    0.437487   -0.335838    0.041920
11
* Frequency(8)  395.3768
C     1.684157    0.376201    0.015189    0.322130   -0.095859    0.016085
C     1.447973   -1.018562    0.124641    0.124919   -0.182165    0.021564
N     0.270883   -1.711280    0.147492    0.100625   -0.296069    0.023583
C    -0.828743   -0.879661    0.050207    0.244206    0.017310    0.004711
N    -0.593348    0.422722   -0.049989    0.576490   -0.294316    0.045587
C     0.481028    1.206163   -0.087291    0.183346   -0.125403    0.013269
O    -2.093294   -1.071318    0.031951   -0.176959    1.015316   -0.090044
O     0.058191    2.431671   -0.200620   -1.145897   -0.158959   -0.019711
H     2.343394   -1.653504    0.203539    0.118688   -0.187985    0.028373
H    -1.447196    0.966356   -0.118031    0.609700   -0.263571    0.047708
H     2.707760    0.764871    0.012419    0.437487   -0.335838    0.041920
11
* Frequency(8)  395.3768
C     1.699066    0.371765    0.015933    0.322130   -0.095859    0.016085
C     1.453754   -1.026993    0.125639    0.124919   -0.182165    0.021564
N     0.275540   -1.724983    0.148584    0.100625   -0.296069    0.023583
C    -0.817441   -0.878860    0.050425    0.244206    0.017310    0.004711
N    -0.566667    0.409100   -0.047879    0.576490   -0.294316    0.045587
C     0.489513    1.200359   -0.086677    0.183346   -0.125403    0.013269
O    -2.101484   -1.024327    0.027784   -0.176959    1.015316   -0.090044
O     0.005157    2.424314   -0.201533   -1.145897   -0.158959   -0.019711
H     2.348887   -1.662204    0.204853    0.118688   -0.187985    0.028373
H    -1.418978    0.954158   -0.115823    0.609700   -0.263571    0.047708
H     2.728007    0.749328    0.014360    0.437487   -0.335838    0.041920
11
* Frequency(8)  395.3768
C     1.702131    0.370853    0.016086    0.322130   -0.095859    0.016085
C     1.454943   -1.028727    0.125844    0.124919   -0.182165    0.021564
N     0.276497   -1.727800    0.148808    0.100625   -0.296069    0.023583
C    -0.815118   -0.878696    0.050470    0.244206    0.017310    0.004711
N    -0.561182    0.406300   -0.047445    0.576490   -0.294316    0.045587
C     0.491258    1.199166   -0.086551    0.183346   -0.125403    0.013269
O    -2.103168   -1.014667    0.026927   -0.176959    1.015316   -0.090044
O    -0.005746    2.422801   -0.201720   -1.145897   -0.158959   -0.019711
H     2.350016   -1.663992    0.205123    0.118688   -0.187985    0.028373
H    -1.413177    0.951650   -0.115369    0.609700   -0.263571    0.047708
H     2.732170    0.746132    0.014758    0.437487   -0.335838    0.041920
11
* Frequency(8)  395.3768
C     1.693020    0.373564    0.015631    0.322130   -0.095859    0.016085
C     1.451409   -1.023574    0.125234    0.124919   -0.182165    0.021564
N     0.273651   -1.719426    0.148141    0.100625   -0.296069    0.023583
C    -0.822025   -0.879185    0.050337    0.244206    0.017310    0.004711
N    -0.577487    0.414624   -0.048734    0.576490   -0.294316    0.045587
C     0.486072    1.202713   -0.086926    0.183346   -0.125403    0.013269
O    -2.098163   -1.043384    0.029474   -0.176959    1.015316   -0.090044
O     0.026665    2.427297   -0.201163   -1.145897   -0.158959   -0.019711
H     2.346659   -1.658676    0.204320    0.118688   -0.187985    0.028373
H    -1.430422    0.959105   -0.116718    0.609700   -0.263571    0.047708
H     2.719796    0.755631    0.013573    0.437487   -0.335838    0.041920
11
* Frequency(8)  395.3768
C     1.672720    0.379605    0.014618    0.322130   -0.095859    0.016085
C     1.443537   -1.012095    0.123876    0.124919   -0.182165    0.021564
N     0.267310   -1.700768    0.146655    0.100625   -0.296069    0.023583
C    -0.837414   -0.880276    0.050040    0.244206    0.017310    0.004711
N    -0.613816    0.433171   -0.051607    0.576490   -0.294316    0.045587
C     0.474518    1.210615   -0.087762    0.183346   -0.125403    0.013269
O    -2.087011   -1.107366    0.035148   -0.176959    1.015316   -0.090044
O     0.098876    2.437314   -0.199920   -1.145897   -0.158959   -0.019711
H     2.339180   -1.646829    0.202532    0.118688   -0.187985    0.028373
H    -1.468843    0.975714   -0.119725    0.609700   -0.263571    0.047708
H     2.692227    0.776795    0.010931    0.437487   -0.335838    0.041920
11
* Frequency(8)  395.3768
C     1.643431    0.388320    0.013155    0.322130   -0.095859    0.016085
C     1.432180   -0.995532    0.121915    0.124919   -0.182165    0.021564
N     0.258161   -1.673849    0.144511    0.100625   -0.296069    0.023583
C    -0.859618   -0.881850    0.049612    0.244206    0.017310    0.004711
N    -0.666232    0.459931   -0.055752    0.576490   -0.294316    0.045587
C     0.457848    1.222017   -0.088968    0.183346   -0.125403    0.013269
O    -2.070922   -1.199681    0.043335   -0.176959    1.015316   -0.090044
O     0.203063    2.451767   -0.198128   -1.145897   -0.158959   -0.019711
H     2.328389   -1.629737    0.199952    0.118688   -0.187985    0.028373
H    -1.524278    0.999678   -0.124062    0.609700   -0.263571    0.047708
H     2.652450    0.807330    0.007119    0.437487   -0.335838    0.041920
11
* Frequency(8)  395.3768
C     1.608327    0.398766    0.011402    0.322130   -0.095859    0.016085
C     1.418567   -0.975681    0.119565    0.124919   -0.182165    0.021564
N     0.247196   -1.641586    0.141941    0.100625   -0.296069    0.023583
C    -0.886230   -0.883736    0.049098    0.244206    0.017310    0.004711
N    -0.729054    0.492004   -0.060720    0.576490   -0.294316    0.045587
C     0.437868    1.235683   -0.090414    0.183346   -0.125403    0.013269
O    -2.051638   -1.310323    0.053148   -0.176959    1.015316   -0.090044
O     0.327936    2.469089   -0.195980   -1.145897   -0.158959   -0.019711
H     2.315455   -1.609252    0.196860    0.118688   -0.187985    0.028373
H    -1.590719    1.028401   -0.129261    0.609700   -0.263571    0.047708
H     2.604775    0.843927    0.002551    0.437487   -0.335838    0.041920
11
* Frequency(8)  395.3768
C     1.571213    0.409811    0.009549    0.322130   -0.095859    0.016085
C     1.404174   -0.954692    0.117081    0.124919   -0.182165    0.021564
N     0.235602   -1.607474    0.139224    0.100625   -0.296069    0.023583
C    -0.914366   -0.885731    0.048555    0.244206    0.017310    0.004711
N    -0.795475    0.525914   -0.065972    0.576490   -0.294316    0.045587
C     0.416744    1.250131   -0.091943    0.183346   -0.125403    0.013269
O    -2.031249   -1.427304    0.063522   -0.176959    1.015316   -0.090044
O     0.459962    2.487404   -0.193709   -1.145897   -0.158959   -0.019711
H     2.301780   -1.587593    0.193591    0.118688   -0.187985    0.028373
H    -1.660967    1.058768   -0.134758    0.609700   -0.263571    0.047708
H     2.554370    0.882621   -0.002279    0.437487   -0.335838    0.041920
11
* Frequency(8)  395.3768
C     1.536109    0.420257    0.007796    0.322130   -0.095859    0.016085
C     1.390561   -0.934841    0.114731    0.124919   -0.182165    0.021564
N     0.224637   -1.575210    0.136654    0.100625   -0.296069    0.023583
C    -0.940978   -0.887617    0.048042    0.244206    0.017310    0.004711
N    -0.858297    0.557986   -0.070940    0.576490   -0.294316    0.045587
C     0.396764    1.263797   -0.093389    0.183346   -0.125403    0.013269
O    -2.011965   -1.537947    0.073335   -0.176959    1.015316   -0.090044
O     0.584834    2.504726   -0.191561   -1.145897   -0.158959   -0.019711
H     2.288846   -1.567108    0.190499    0.118688   -0.187985    0.028373
H    -1.727408    1.087490   -0.139957    0.609700   -0.263571    0.047708
H     2.506695    0.919219   -0.006847    0.437487   -0.335838    0.041920
11
* Frequency(8)  395.3768
C     1.506821    0.428973    0.006334    0.322130   -0.095859    0.016085
C     1.379203   -0.918278    0.112770    0.124919   -0.182165    0.021564
N     0.215488   -1.548291    0.134510    0.100625   -0.296069    0.023583
C    -0.963182   -0.889191    0.047614    0.244206    0.017310    0.004711
N    -0.910712    0.584746   -0.075085    0.576490   -0.294316    0.045587
C     0.380093    1.275199   -0.094595    0.183346   -0.125403    0.013269
O    -1.995876   -1.630261    0.081522   -0.176959    1.015316   -0.090044
O     0.689021    2.519179   -0.189769   -1.145897   -0.158959   -0.019711
H     2.278055   -1.550016    0.187920    0.118688   -0.187985    0.028373
H    -1.782843    1.111455   -0.144294    0.609700   -0.263571    0.047708
H     2.466918    0.949754   -0.010658    0.437487   -0.335838    0.041920
11
* Frequency(8)  395.3768
C     1.486521    0.435014    0.005320    0.322130   -0.095859    0.016085
C     1.371331   -0.906799    0.111411    0.124919   -0.182165    0.021564
N     0.209147   -1.529634    0.133023    0.100625   -0.296069    0.023583
C    -0.978571   -0.890282    0.047317    0.244206    0.017310    0.004711
N    -0.947041    0.603293   -0.077958    0.576490   -0.294316    0.045587
C     0.368539    1.283101   -0.095432    0.183346   -0.125403    0.013269
O    -1.984725   -1.694244    0.087196   -0.176959    1.015316   -0.090044
O     0.761232    2.529196   -0.188527   -1.145897   -0.158959   -0.019711
H     2.270575   -1.538170    0.186132    0.118688   -0.187985    0.028373
H    -1.821264    1.128064   -0.147301    0.609700   -0.263571    0.047708
H     2.439349    0.970917   -0.013300    0.437487   -0.335838    0.041920
11
* Frequency(8)  395.3768
C     1.477410    0.437725    0.004865    0.322130   -0.095859    0.016085
C     1.367798   -0.901646    0.110801    0.124919   -0.182165    0.021564
N     0.206301   -1.521260    0.132356    0.100625   -0.296069    0.023583
C    -0.985478   -0.890771    0.047184    0.244206    0.017310    0.004711
N    -0.963347    0.611618   -0.079247    0.576490   -0.294316    0.045587
C     0.363354    1.286648   -0.095807    0.183346   -0.125403    0.013269
O    -1.979719   -1.722961    0.089743   -0.176959    1.015316   -0.090044
O     0.793643    2.533692   -0.187969   -1.145897   -0.158959   -0.019711
H     2.267218   -1.532853    0.185329    0.118688   -0.187985    0.028373
H    -1.838509    1.135519   -0.148650    0.609700   -0.263571    0.047708
H     2.426975    0.980416   -0.014486    0.437487   -0.335838    0.041920
11
* Frequency(8)  395.3768
C     1.480475    0.436813    0.005018    0.322130   -0.095859    0.016085
C     1.368987   -0.903379    0.111007    0.124919   -0.182165    0.021564
N     0.207258   -1.524076    0.132581    0.100625   -0.296069    0.023583
C    -0.983155   -0.890607    0.047228    0.244206    0.017310    0.004711
N    -0.957862    0.608817   -0.078813    0.576490   -0.294316    0.045587
C     0.365098    1.285455   -0.095681    0.183346   -0.125403    0.013269
O    -1.981403   -1.713301    0.088886   -0.176959    1.015316   -0.090044
O     0.782740    2.532180   -0.188157   -1.145897   -0.158959   -0.019711
H     2.268348   -1.534641    0.185599    0.118688   -0.187985    0.028373
H    -1.832708    1.133011   -0.148196    0.609700   -0.263571    0.047708
H     2.431137    0.977221   -0.014087    0.437487   -0.335838    0.041920
11
* Frequency(8)  395.3768
C     1.495383    0.432376    0.005763    0.322130   -0.095859    0.016085
C     1.374768   -0.911810    0.112005    0.124919   -0.182165    0.021564
N     0.211915   -1.537779    0.133672    0.100625   -0.296069    0.023583
C    -0.971852   -0.889806    0.047446    0.244206    0.017310    0.004711
N    -0.931181    0.595196   -0.076704    0.576490   -0.294316    0.045587
C     0.373584    1.279651   -0.095067    0.183346   -0.125403    0.013269
O    -1.989593   -1.666310    0.084719   -0.176959    1.015316   -0.090044
O     0.729706    2.524823   -0.189069   -1.145897   -0.158959   -0.019711
H     2.273841   -1.543342    0.186912    0.118688   -0.187985    0.028373
H    -1.804490    1.120813   -0.145988    0.609700   -0.263571    0.047708
H     2.451385    0.961677   -0.012147    0.437487   -0.335838    0.041920
11
* Frequency(8)  395.3768
C     1.520520    0.424896    0.007018    0.322130   -0.095859    0.016085
C     1.384516   -0.926025    0.113687    0.124919   -0.182165    0.021564
N     0.219767   -1.560882    0.135512    0.100625   -0.296069    0.023583
C    -0.952796   -0.888455    0.047814    0.244206    0.017310    0.004711
N    -0.886195    0.572229   -0.073146    0.576490   -0.294316    0.045587
C     0.387891    1.269865   -0.094031    0.183346   -0.125403    0.013269
O    -2.003402   -1.587081    0.077692   -0.176959    1.015316   -0.090044
O     0.640287    2.512419   -0.190607   -1.145897   -0.158959   -0.019711
H     2.283102   -1.558011    0.189126    0.118688   -0.187985    0.028373
H    -1.756913    1.100245   -0.142265    0.609700   -0.263571    0.047708
H     2.485524    0.935471   -0.008876    0.437487   -0.335838    0.041920
11
* Frequency(8)  395.3768
C     1.553162    0.415183    0.008648    0.322130   -0.095859    0.016085
C     1.397174   -0.944484    0.115872    0.124919   -0.182165    0.021564
N     0.229963   -1.590883    0.137902    0.100625   -0.296069    0.023583
C    -0.928051   -0.886701    0.048291    0.244206    0.017310    0.004711
N    -0.827779    0.542406   -0.068527    0.576490   -0.294316    0.045587
C     0.406469    1.257158   -0.092687    0.183346   -0.125403    0.013269
O    -2.021333   -1.484199    0.068568   -0.176959    1.015316   -0.090044
O     0.524174    2.496312   -0.192605   -1.145897   -0.158959   -0.019711
H     2.295129   -1.577059    0.192001    0.118688   -0.187985    0.028373
H    -1.695132    1.073538   -0.137431    0.609700   -0.263571    0.047708
H     2.529854    0.901440   -0.004628    0.437487   -0.335838    0.041920
11
* Frequency(8)  395.3768
C     1.589770    0.404289    0.010476    0.322130   -0.095859    0.016085
C     1.411370   -0.965186    0.118323    0.124919   -0.182165    0.021564
N     0.241399   -1.624530    0.140582    0.100625   -0.296069    0.023583
C    -0.900298   -0.884733    0.048827    0.244206    0.017310    0.004711
N    -0.762264    0.508959   -0.063346    0.576490   -0.294316    0.045587
C     0.427306    1.242907   -0.091179    0.183346   -0.125403    0.013269
O    -2.041444   -1.368814    0.058335   -0.176959    1.015316   -0.090044
O     0.393949    2.478247   -0.194845   -1.145897   -0.158959   -0.019711
H     2.308617   -1.598423    0.195226    0.118688   -0.187985    0.028373
H    -1.625843    1.043584   -0.132009    0.609700   -0.263571    0.047708
H     2.579572    0.863274    0.000136    0.437487   -0.335838    0.041920
