11
* (null), Energy   -1000.0000000
C     1.356566    0.572472   -0.019574    0.673037    0.090180    0.009576
C     1.179217   -0.796685    0.088575    0.279852    0.213245   -0.008339
N     0.008210   -1.454494    0.110838   -0.070245    0.867509   -0.074332
C    -1.131376   -0.714764    0.018532   -0.401528    0.317326   -0.038667
N    -0.995238    0.677642   -0.092617   -0.142529    0.026460   -0.006209
C     0.194158    1.409660   -0.120689    0.239680   -0.545548    0.051060
O    -2.273001   -1.200862    0.028059   -0.220908   -0.254738    0.015819
O     0.161758    2.645985   -0.224814   -0.235491   -0.642854    0.047528
H     2.075560   -1.430341    0.165515   -0.105755   -0.341409    0.030064
H    -1.858608    1.212888   -0.161920    0.366993    0.844626   -0.058594
H     2.345944    1.032379   -0.030255    0.513623    0.424818   -0.020154
11
* Frequency(10)  529.8846
C     1.433054    0.582720   -0.018485    0.673037    0.090180    0.009576
C     1.211021   -0.772450    0.087628    0.279852    0.213245   -0.008339
N     0.000227   -1.355906    0.102391   -0.070245    0.867509   -0.074332
C    -1.177007   -0.678702    0.014137   -0.401528    0.317326   -0.038667
N    -1.011436    0.680650   -0.093323   -0.142529    0.026460   -0.006209
C     0.221396    1.347661   -0.114886    0.239680   -0.545548    0.051060
O    -2.298106   -1.229812    0.029857   -0.220908   -0.254738    0.015819
O     0.134996    2.572928   -0.219413   -0.235491   -0.642854    0.047528
H     2.063541   -1.469140    0.168931   -0.105755   -0.341409    0.030064
H    -1.816901    1.308875   -0.168579    0.366993    0.844626   -0.058594
H     2.404315    1.080658   -0.032545    0.513623    0.424818   -0.020154
11
* Frequency(10)  529.8846
C     1.501252    0.591858   -0.017515    0.673037    0.090180    0.009576
C     1.239378   -0.750842    0.086782    0.279852    0.213245   -0.008339
N    -0.006891   -1.268002    0.094859   -0.070245    0.867509   -0.074332
C    -1.217694   -0.646547    0.010219   -0.401528    0.317326   -0.038667
N    -1.025878    0.683331   -0.093952   -0.142529    0.026460   -0.006209
C     0.245683    1.292381   -0.109712    0.239680   -0.545548    0.051060
O    -2.320490   -1.255625    0.031460   -0.220908   -0.254738    0.015819
O     0.111134    2.507788   -0.214597   -0.235491   -0.642854    0.047528
H     2.052825   -1.503735    0.171978   -0.105755   -0.341409    0.030064
H    -1.779714    1.394461   -0.174516    0.366993    0.844626   -0.058594
H     2.456360    1.123704   -0.034587    0.513623    0.424818   -0.020154
11
* Frequency(10)  529.8846
C     1.553772    0.598895   -0.016768    0.673037    0.090180    0.009576
C     1.261216   -0.734202    0.086132    0.279852    0.213245   -0.008339
N    -0.012372   -1.200307    0.089058   -0.070245    0.867509   -0.074332
C    -1.249027   -0.621785    0.007202   -0.401528    0.317326   -0.038667
N    -1.037001    0.685395   -0.094436   -0.142529    0.026460   -0.006209
C     0.264386    1.249810   -0.105728    0.239680   -0.545548    0.051060
O    -2.337729   -1.275503    0.032694   -0.220908   -0.254738    0.015819
O     0.092757    2.457624   -0.210888   -0.235491   -0.642854    0.047528
H     2.044572   -1.530376    0.174324   -0.105755   -0.341409    0.030064
H    -1.751076    1.460370   -0.179089    0.366993    0.844626   -0.058594
H     2.496440    1.156855   -0.036160    0.513623    0.424818   -0.020154
11
* Frequency(10)  529.8846
C     1.584921    0.603069   -0.016325    0.673037    0.090180    0.009576
C     1.274168   -0.724333    0.085746    0.279852    0.213245   -0.008339
N    -0.015624   -1.160157    0.085618   -0.070245    0.867509   -0.074332
C    -1.267610   -0.607098    0.005412   -0.401528    0.317326   -0.038667
N    -1.043597    0.686620   -0.094724   -0.142529    0.026460   -0.006209
C     0.275479    1.224561   -0.103365    0.239680   -0.545548    0.051060
O    -2.347953   -1.287292    0.033426   -0.220908   -0.254738    0.015819
O     0.081858    2.427872   -0.208688   -0.235491   -0.642854    0.047528
H     2.039678   -1.546177    0.175715   -0.105755   -0.341409    0.030064
H    -1.734091    1.499461   -0.181801    0.366993    0.844626   -0.058594
H     2.520212    1.176516   -0.037093    0.513623    0.424818   -0.020154
11
* Frequency(10)  529.8846
C     1.591325    0.603927   -0.016234    0.673037    0.090180    0.009576
C     1.276831   -0.722304    0.085666    0.279852    0.213245   -0.008339
N    -0.016292   -1.151903    0.084911   -0.070245    0.867509   -0.074332
C    -1.271430   -0.604079    0.005044   -0.401528    0.317326   -0.038667
N    -1.044953    0.686872   -0.094783   -0.142529    0.026460   -0.006209
C     0.277759    1.219370   -0.102879    0.239680   -0.545548    0.051060
O    -2.350055   -1.289716    0.033577   -0.220908   -0.254738    0.015819
O     0.079618    2.421755   -0.208236   -0.235491   -0.642854    0.047528
H     2.038672   -1.549426    0.176001   -0.105755   -0.341409    0.030064
H    -1.730599    1.507497   -0.182358    0.366993    0.844626   -0.058594
H     2.525098    1.180558   -0.037284    0.513623    0.424818   -0.020154
11
* Frequency(10)  529.8846
C     1.572289    0.601376   -0.016504    0.673037    0.090180    0.009576
C     1.268915   -0.728335    0.085902    0.279852    0.213245   -0.008339
N    -0.014305   -1.176440    0.087013   -0.070245    0.867509   -0.074332
C    -1.260074   -0.613055    0.006138   -0.401528    0.317326   -0.038667
N    -1.040922    0.686123   -0.094607   -0.142529    0.026460   -0.006209
C     0.270980    1.234800   -0.104323    0.239680   -0.545548    0.051060
O    -2.343806   -1.282511    0.033129   -0.220908   -0.254738    0.015819
O     0.086278    2.439938   -0.209580   -0.235491   -0.642854    0.047528
H     2.041663   -1.539769    0.175151   -0.105755   -0.341409    0.030064
H    -1.740979    1.483608   -0.180701    0.366993    0.844626   -0.058594
H     2.510571    1.168542   -0.036714    0.513623    0.424818   -0.020154
11
* Frequency(10)  529.8846
C     1.529876    0.595694   -0.017108    0.673037    0.090180    0.009576
C     1.251280   -0.741773    0.086428    0.279852    0.213245   -0.008339
N    -0.009878   -1.231108    0.091697   -0.070245    0.867509   -0.074332
C    -1.234770   -0.633052    0.008575   -0.401528    0.317326   -0.038667
N    -1.031940    0.684456   -0.094216   -0.142529    0.026460   -0.006209
C     0.255876    1.269179   -0.107541    0.239680   -0.545548    0.051060
O    -2.329885   -1.266458    0.032132   -0.220908   -0.254738    0.015819
O     0.101118    2.480448   -0.212575   -0.235491   -0.642854    0.047528
H     2.048327   -1.518255    0.173256   -0.105755   -0.341409    0.030064
H    -1.764106    1.430382   -0.177008    0.366993    0.844626   -0.058594
H     2.478204    1.141771   -0.035444    0.513623    0.424818   -0.020154
11
* Frequency(10)  529.8846
C     1.468682    0.587494   -0.017978    0.673037    0.090180    0.009576
C     1.225835   -0.761162    0.087186    0.279852    0.213245   -0.008339
N    -0.003492   -1.309983    0.098456   -0.070245    0.867509   -0.074332
C    -1.198263   -0.661903    0.012090   -0.401528    0.317326   -0.038667
N    -1.018981    0.682050   -0.093651   -0.142529    0.026460   -0.006209
C     0.234084    1.318781   -0.112183    0.239680   -0.545548    0.051060
O    -2.309800   -1.243297    0.030694   -0.220908   -0.254738    0.015819
O     0.122530    2.538898   -0.216897   -0.235491   -0.642854    0.047528
H     2.057943   -1.487213    0.170523   -0.105755   -0.341409    0.030064
H    -1.797474    1.353587   -0.171681    0.366993    0.844626   -0.058594
H     2.431504    1.103146   -0.033612    0.513623    0.424818   -0.020154
11
* Frequency(10)  529.8846
C     1.395339    0.577667   -0.019022    0.673037    0.090180    0.009576
C     1.195339   -0.784400    0.088095    0.279852    0.213245   -0.008339
N     0.004163   -1.404519    0.106556   -0.070245    0.867509   -0.074332
C    -1.154507   -0.696484    0.016304   -0.401528    0.317326   -0.038667
N    -1.003449    0.679167   -0.092975   -0.142529    0.026460   -0.006209
C     0.207965    1.378232   -0.117747    0.239680   -0.545548    0.051060
O    -2.285727   -1.215537    0.028970   -0.220908   -0.254738    0.015819
O     0.148192    2.608952   -0.222076   -0.235491   -0.642854    0.047528
H     2.069467   -1.450009    0.167246   -0.105755   -0.341409    0.030064
H    -1.837466    1.261545   -0.165296    0.366993    0.844626   -0.058594
H     2.375533    1.056852   -0.031416    0.513623    0.424818   -0.020154
11
* Frequency(10)  529.8846
C     1.317794    0.567277   -0.020125    0.673037    0.090180    0.009576
C     1.163095   -0.808969    0.089056    0.279852    0.213245   -0.008339
N     0.012257   -1.504470    0.115120   -0.070245    0.867509   -0.074332
C    -1.108245   -0.733045    0.020759   -0.401528    0.317326   -0.038667
N    -0.987027    0.676118   -0.092259   -0.142529    0.026460   -0.006209
C     0.180350    1.441088   -0.123630    0.239680   -0.545548    0.051060
O    -2.260275   -1.186187    0.027147   -0.220908   -0.254738    0.015819
O     0.175324    2.683019   -0.227552   -0.235491   -0.642854    0.047528
H     2.081652   -1.410673    0.163783   -0.105755   -0.341409    0.030064
H    -1.879750    1.164230   -0.158545    0.366993    0.844626   -0.058594
H     2.316355    1.007906   -0.029094    0.513623    0.424818   -0.020154
11
* Frequency(10)  529.8846
C     1.244451    0.557449   -0.021169    0.673037    0.090180    0.009576
C     1.132599   -0.832207    0.089964    0.279852    0.213245   -0.008339
N     0.019912   -1.599005    0.123220   -0.070245    0.867509   -0.074332
C    -1.064489   -0.767625    0.024973   -0.401528    0.317326   -0.038667
N    -0.971496    0.673235   -0.091583   -0.142529    0.026460   -0.006209
C     0.154231    1.500538   -0.129195    0.239680   -0.545548    0.051060
O    -2.236202   -1.158428    0.025424   -0.220908   -0.254738    0.015819
O     0.200987    2.753073   -0.232731   -0.235491   -0.642854    0.047528
H     2.093176   -1.373468    0.160506   -0.105755   -0.341409    0.030064
H    -1.919742    1.072189   -0.152159    0.366993    0.844626   -0.058594
H     2.260384    0.961612   -0.026897    0.513623    0.424818   -0.020154
11
* Frequency(10)  529.8846
C     1.183257    0.549250   -0.022039    0.673037    0.090180    0.009576
C     1.107154   -0.851596    0.090723    0.279852    0.213245   -0.008339
N     0.026298   -1.677881    0.129979   -0.070245    0.867509   -0.074332
C    -1.027981   -0.796477    0.028489   -0.401528    0.317326   -0.038667
N    -0.958537    0.670829   -0.091018   -0.142529    0.026460   -0.006209
C     0.132439    1.550140   -0.133837    0.239680   -0.545548    0.051060
O    -2.216117   -1.135267    0.023985   -0.220908   -0.254738    0.015819
O     0.222398    2.811522   -0.237053   -0.235491   -0.642854    0.047528
H     2.102792   -1.342427    0.157773   -0.105755   -0.341409    0.030064
H    -1.953110    0.995394   -0.146832    0.366993    0.844626   -0.058594
H     2.213685    0.922987   -0.025065    0.513623    0.424818   -0.020154
11
* Frequency(10)  529.8846
C     1.140844    0.543567   -0.022643    0.673037    0.090180    0.009576
C     1.089519   -0.865034    0.091248    0.279852    0.213245   -0.008339
N     0.030725   -1.732549    0.134663   -0.070245    0.867509   -0.074332
C    -1.002678   -0.816474    0.030925   -0.401528    0.317326   -0.038667
N    -0.949555    0.669162   -0.090627   -0.142529    0.026460   -0.006209
C     0.117335    1.584519   -0.137055    0.239680   -0.545548    0.051060
O    -2.202196   -1.119214    0.022988   -0.220908   -0.254738    0.015819
O     0.237238    2.852033   -0.240048   -0.235491   -0.642854    0.047528
H     2.109456   -1.320912    0.155878   -0.105755   -0.341409    0.030064
H    -1.976237    0.942168   -0.143139    0.366993    0.844626   -0.058594
H     2.181318    0.896216   -0.023795    0.513623    0.424818   -0.020154
11
* Frequency(10)  529.8846
C     1.121808    0.541016   -0.022914    0.673037    0.090180    0.009576
C     1.081603   -0.871066    0.091484    0.279852    0.213245   -0.008339
N     0.032712   -1.757085    0.136765   -0.070245    0.867509   -0.074332
C    -0.991321   -0.825449    0.032019   -0.401528    0.317326   -0.038667
N    -0.945523    0.668413   -0.090451   -0.142529    0.026460   -0.006209
C     0.110556    1.599949   -0.138499    0.239680   -0.545548    0.051060
O    -2.195947   -1.112009    0.022541   -0.220908   -0.254738    0.015819
O     0.243898    2.870216   -0.241392   -0.235491   -0.642854    0.047528
H     2.112447   -1.311256    0.155028   -0.105755   -0.341409    0.030064
H    -1.986617    0.918278   -0.141482    0.366993    0.844626   -0.058594
H     2.166790    0.884201   -0.023225    0.513623    0.424818   -0.020154
11
* Frequency(10)  529.8846
C     1.128212    0.541874   -0.022823    0.673037    0.090180    0.009576
C     1.084266   -0.869037    0.091405    0.279852    0.213245   -0.008339
N     0.032044   -1.748832    0.136058   -0.070245    0.867509   -0.074332
C    -0.995141   -0.822430    0.031651   -0.401528    0.317326   -0.038667
N    -0.946880    0.668665   -0.090510   -0.142529    0.026460   -0.006209
C     0.112837    1.594758   -0.138013    0.239680   -0.545548    0.051060
O    -2.198049   -1.114432    0.022691   -0.220908   -0.254738    0.015819
O     0.241658    2.864099   -0.240940   -0.235491   -0.642854    0.047528
H     2.111441   -1.314504    0.155314   -0.105755   -0.341409    0.030064
H    -1.983125    0.926315   -0.142040    0.366993    0.844626   -0.058594
H     2.171677    0.888243   -0.023417    0.513623    0.424818   -0.020154
11
* Frequency(10)  529.8846
C     1.159361    0.546048   -0.022379    0.673037    0.090180    0.009576
C     1.097218   -0.859167    0.091019    0.279852    0.213245   -0.008339
N     0.028792   -1.708682    0.132618   -0.070245    0.867509   -0.074332
C    -1.013725   -0.807743    0.029861   -0.401528    0.317326   -0.038667
N    -0.953476    0.669890   -0.090798   -0.142529    0.026460   -0.006209
C     0.123929    1.569510   -0.135650    0.239680   -0.545548    0.051060
O    -2.208273   -1.126222    0.023424   -0.220908   -0.254738    0.015819
O     0.230759    2.834347   -0.238740   -0.235491   -0.642854    0.047528
H     2.106547   -1.330305    0.156705   -0.105755   -0.341409    0.030064
H    -1.966140    0.965405   -0.144752    0.366993    0.844626   -0.058594
H     2.195449    0.907904   -0.024349    0.513623    0.424818   -0.020154
11
* Frequency(10)  529.8846
C     1.211881    0.553085   -0.021632    0.673037    0.090180    0.009576
C     1.119056   -0.842527    0.090368    0.279852    0.213245   -0.008339
N     0.023311   -1.640987    0.126817   -0.070245    0.867509   -0.074332
C    -1.045058   -0.782981    0.026844   -0.401528    0.317326   -0.038667
N    -0.964598    0.671954   -0.091282   -0.142529    0.026460   -0.006209
C     0.142633    1.526938   -0.131666    0.239680   -0.545548    0.051060
O    -2.225512   -1.146100    0.024658   -0.220908   -0.254738    0.015819
O     0.212383    2.784183   -0.235031   -0.235491   -0.642854    0.047528
H     2.098294   -1.356947    0.159051   -0.105755   -0.341409    0.030064
H    -1.937502    1.031315   -0.149324    0.366993    0.844626   -0.058594
H     2.235528    0.941054   -0.025922    0.513623    0.424818   -0.020154
11
* Frequency(10)  529.8846
C     1.280079    0.562223   -0.020662    0.673037    0.090180    0.009576
C     1.147413   -0.820919    0.089523    0.279852    0.213245   -0.008339
N     0.016193   -1.553082    0.119285   -0.070245    0.867509   -0.074332
C    -1.085744   -0.750827    0.022926   -0.401528    0.317326   -0.038667
N    -0.979041    0.674635   -0.091911   -0.142529    0.026460   -0.006209
C     0.166919    1.471658   -0.126492    0.239680   -0.545548    0.051060
O    -2.247896   -1.171913    0.026261   -0.220908   -0.254738    0.015819
O     0.188520    2.719042   -0.230215   -0.235491   -0.642854    0.047528
H     2.087578   -1.391541    0.162098   -0.105755   -0.341409    0.030064
H    -1.900315    1.116900   -0.155261    0.366993    0.844626   -0.058594
H     2.287574    0.984101   -0.027964    0.513623    0.424818   -0.020154
11
* Frequency(10)  529.8846
C     1.356566    0.572472   -0.019574    0.673037    0.090180    0.009576
C     1.179217   -0.796685    0.088575    0.279852    0.213245   -0.008339
N     0.008210   -1.454494    0.110838   -0.070245    0.867509   -0.074332
C    -1.131376   -0.714764    0.018532   -0.401528    0.317326   -0.038667
N    -0.995238    0.677642   -0.092617   -0.142529    0.026460   -0.006209
C     0.194158    1.409660   -0.120689    0.239680   -0.545548    0.051060
O    -2.273001   -1.200862    0.028059   -0.220908   -0.254738    0.015819
O     0.161758    2.645985   -0.224814   -0.235491   -0.642854    0.047528
H     2.075560   -1.430341    0.165515   -0.105755   -0.341409    0.030064
H    -1.858608    1.212888   -0.161920    0.366993    0.844626   -0.058594
H     2.345944    1.032379   -0.030255    0.513623    0.424818   -0.020154
