11
* (null), Energy   -1000.0000000
C     1.589770    0.404289    0.010476   -0.009535    0.001326   -0.000372
C     1.411370   -0.965186    0.118323    0.135164   -0.106061    0.012474
N     0.241399   -1.624530    0.140582    0.001802    0.001684   -0.000091
C    -0.900298   -0.884733    0.048827   -0.005386    0.000275   -0.000167
N    -0.762264    0.508959   -0.063346    0.000370   -0.000226    0.000031
C     0.427306    1.242907   -0.091179   -0.001618    0.001539   -0.000181
O    -2.041444   -1.368814    0.058335    0.001452    0.000402    0.000005
O     0.393949    2.478247   -0.194845    0.000336   -0.001087    0.000101
H     2.308617   -1.598423    0.195226   -1.607046    1.160049   -0.139963
H    -1.625843    1.043584   -0.132009   -0.002877   -0.000267   -0.000070
H     2.579572    0.863274    0.000136    0.137860    0.057219   -0.000877
11
* Frequency(30) 3095.1015
C     1.588687    0.404439    0.010434   -0.009535    0.001326   -0.000372
C     1.426731   -0.977240    0.119741    0.135164   -0.106061    0.012474
N     0.241604   -1.624338    0.140572    0.001802    0.001684   -0.000091
C    -0.900910   -0.884702    0.048808   -0.005386    0.000275   -0.000167
N    -0.762222    0.508933   -0.063343    0.000370   -0.000226    0.000031
C     0.427122    1.243082   -0.091199   -0.001618    0.001539   -0.000181
O    -2.041279   -1.368768    0.058336    0.001452    0.000402    0.000005
O     0.393987    2.478123   -0.194833    0.000336   -0.001087    0.000101
H     2.125985   -1.466589    0.179320   -1.607046    1.160049   -0.139963
H    -1.626170    1.043554   -0.132017   -0.002877   -0.000267   -0.000070
H     2.595239    0.869777    0.000037    0.137860    0.057219   -0.000877
11
* Frequency(30) 3095.1015
C     1.587720    0.404574    0.010396   -0.009535    0.001326   -0.000372
C     1.440427   -0.987987    0.121005    0.135164   -0.106061    0.012474
N     0.241786   -1.624168    0.140563    0.001802    0.001684   -0.000091
C    -0.901456   -0.884674    0.048791   -0.005386    0.000275   -0.000167
N    -0.762185    0.508910   -0.063339    0.000370   -0.000226    0.000031
C     0.426958    1.243238   -0.091218   -0.001618    0.001539   -0.000181
O    -2.041131   -1.368727    0.058336    0.001452    0.000402    0.000005
O     0.394021    2.478013   -0.194823    0.000336   -0.001087    0.000101
H     1.963143   -1.349042    0.165137   -1.607046    1.160049   -0.139963
H    -1.626462    1.043527   -0.132024   -0.002877   -0.000267   -0.000070
H     2.609209    0.875575   -0.000052    0.137860    0.057219   -0.000877
11
* Frequency(30) 3095.1015
C     1.586976    0.404677    0.010367   -0.009535    0.001326   -0.000372
C     1.450975   -0.996263    0.121978    0.135164   -0.106061    0.012474
N     0.241927   -1.624036    0.140555    0.001802    0.001684   -0.000091
C    -0.901876   -0.884653    0.048778   -0.005386    0.000275   -0.000167
N    -0.762156    0.508892   -0.063337    0.000370   -0.000226    0.000031
C     0.426832    1.243358   -0.091232   -0.001618    0.001539   -0.000181
O    -2.041018   -1.368696    0.058337    0.001452    0.000402    0.000005
O     0.394047    2.477928   -0.194815    0.000336   -0.001087    0.000101
H     1.837739   -1.258519    0.154216   -1.607046    1.160049   -0.139963
H    -1.626686    1.043506   -0.132030   -0.002877   -0.000267   -0.000070
H     2.619966    0.880040   -0.000121    0.137860    0.057219   -0.000877
11
* Frequency(30) 3095.1015
C     1.586535    0.404739    0.010350   -0.009535    0.001326   -0.000372
C     1.457230   -1.001172    0.122555    0.135164   -0.106061    0.012474
N     0.242010   -1.623958    0.140551    0.001802    0.001684   -0.000091
C    -0.902125   -0.884640    0.048770   -0.005386    0.000275   -0.000167
N    -0.762139    0.508882   -0.063336    0.000370   -0.000226    0.000031
C     0.426757    1.243429   -0.091240   -0.001618    0.001539   -0.000181
O    -2.040951   -1.368678    0.058337    0.001452    0.000402    0.000005
O     0.394062    2.477878   -0.194810    0.000336   -0.001087    0.000101
H     1.763362   -1.204830    0.147738   -1.607046    1.160049   -0.139963
H    -1.626819    1.043494   -0.132033   -0.002877   -0.000267   -0.000070
H     2.626347    0.882688   -0.000161    0.137860    0.057219   -0.000877
11
* Frequency(30) 3095.1015
C     1.586444    0.404751    0.010346   -0.009535    0.001326   -0.000372
C     1.458516   -1.002181    0.122674    0.135164   -0.106061    0.012474
N     0.242028   -1.623942    0.140550    0.001802    0.001684   -0.000091
C    -0.902177   -0.884638    0.048769   -0.005386    0.000275   -0.000167
N    -0.762135    0.508880   -0.063335    0.000370   -0.000226    0.000031
C     0.426741    1.243444   -0.091242   -0.001618    0.001539   -0.000181
O    -2.040937   -1.368674    0.058337    0.001452    0.000402    0.000005
O     0.394066    2.477868   -0.194809    0.000336   -0.001087    0.000101
H     1.748072   -1.193792    0.146406   -1.607046    1.160049   -0.139963
H    -1.626847    1.043491   -0.132034   -0.002877   -0.000267   -0.000070
H     2.627659    0.883233   -0.000170    0.137860    0.057219   -0.000877
11
* Frequency(30) 3095.1015
C     1.586714    0.404714    0.010357   -0.009535    0.001326   -0.000372
C     1.454693   -0.999181    0.122321    0.135164   -0.106061    0.012474
N     0.241977   -1.623990    0.140553    0.001802    0.001684   -0.000091
C    -0.902024   -0.884645    0.048773   -0.005386    0.000275   -0.000167
N    -0.762146    0.508886   -0.063336    0.000370   -0.000226    0.000031
C     0.426787    1.243400   -0.091237   -0.001618    0.001539   -0.000181
O    -2.040978   -1.368685    0.058337    0.001452    0.000402    0.000005
O     0.394056    2.477898   -0.194812    0.000336   -0.001087    0.000101
H     1.793526   -1.226603    0.150365   -1.607046    1.160049   -0.139963
H    -1.626765    1.043499   -0.132032   -0.002877   -0.000267   -0.000070
H     2.623759    0.881614   -0.000145    0.137860    0.057219   -0.000877
11
* Frequency(30) 3095.1015
C     1.587315    0.404630    0.010380   -0.009535    0.001326   -0.000372
C     1.446176   -0.992498    0.121535    0.135164   -0.106061    0.012474
N     0.241863   -1.624096    0.140559    0.001802    0.001684   -0.000091
C    -0.901685   -0.884663    0.048784   -0.005386    0.000275   -0.000167
N    -0.762169    0.508900   -0.063338    0.000370   -0.000226    0.000031
C     0.426889    1.243303   -0.091225   -0.001618    0.001539   -0.000181
O    -2.041070   -1.368710    0.058336    0.001452    0.000402    0.000005
O     0.394035    2.477967   -0.194819    0.000336   -0.001087    0.000101
H     1.894797   -1.299706    0.159185   -1.607046    1.160049   -0.139963
H    -1.626584    1.043516   -0.132027   -0.002877   -0.000267   -0.000070
H     2.615072    0.878008   -0.000089    0.137860    0.057219   -0.000877
11
* Frequency(30) 3095.1015
C     1.588182    0.404510    0.010414   -0.009535    0.001326   -0.000372
C     1.433886   -0.982854    0.120401    0.135164   -0.106061    0.012474
N     0.241699   -1.624249    0.140567    0.001802    0.001684   -0.000091
C    -0.901195   -0.884688    0.048799   -0.005386    0.000275   -0.000167
N    -0.762203    0.508921   -0.063341    0.000370   -0.000226    0.000031
C     0.427036    1.243163   -0.091209   -0.001618    0.001539   -0.000181
O    -2.041202   -1.368747    0.058336    0.001452    0.000402    0.000005
O     0.394004    2.478066   -0.194828    0.000336   -0.001087    0.000101
H     2.040913   -1.405180    0.171911   -1.607046    1.160049   -0.139963
H    -1.626322    1.043540   -0.132021   -0.002877   -0.000267   -0.000070
H     2.602537    0.872806   -0.000010    0.137860    0.057219   -0.000877
11
* Frequency(30) 3095.1015
C     1.589221    0.404365    0.010454   -0.009535    0.001326   -0.000372
C     1.419157   -0.971296    0.119041    0.135164   -0.106061    0.012474
N     0.241503   -1.624433    0.140577    0.001802    0.001684   -0.000091
C    -0.900608   -0.884718    0.048817   -0.005386    0.000275   -0.000167
N    -0.762243    0.508946   -0.063344    0.000370   -0.000226    0.000031
C     0.427213    1.242996   -0.091189   -0.001618    0.001539   -0.000181
O    -2.041360   -1.368791    0.058335    0.001452    0.000402    0.000005
O     0.393968    2.478184   -0.194839    0.000336   -0.001087    0.000101
H     2.216038   -1.531594    0.187163   -1.607046    1.160049   -0.139963
H    -1.626009    1.043569   -0.132013   -0.002877   -0.000267   -0.000070
H     2.587514    0.866570    0.000086    0.137860    0.057219   -0.000877
11
* Frequency(30) 3095.1015
C     1.590319    0.404212    0.010497   -0.009535    0.001326   -0.000372
C     1.403584   -0.959076    0.117604    0.135164   -0.106061    0.012474
N     0.241295   -1.624627    0.140588    0.001802    0.001684   -0.000091
C    -0.899988   -0.884749    0.048836   -0.005386    0.000275   -0.000167
N    -0.762286    0.508972   -0.063348    0.000370   -0.000226    0.000031
C     0.427399    1.242818   -0.091168   -0.001618    0.001539   -0.000181
O    -2.041527   -1.368837    0.058335    0.001452    0.000402    0.000005
O     0.393929    2.478309   -0.194851    0.000336   -0.001087    0.000101
H     2.401196   -1.665251    0.203289   -1.607046    1.160049   -0.139963
H    -1.625677    1.043600   -0.132005   -0.002877   -0.000267   -0.000070
H     2.571631    0.859978    0.000187    0.137860    0.057219   -0.000877
11
* Frequency(30) 3095.1015
C     1.591359    0.404068    0.010538   -0.009535    0.001326   -0.000372
C     1.388855   -0.947519    0.116245    0.135164   -0.106061    0.012474
N     0.241099   -1.624810    0.140597    0.001802    0.001684   -0.000091
C    -0.899401   -0.884779    0.048855   -0.005386    0.000275   -0.000167
N    -0.762326    0.508996   -0.063351    0.000370   -0.000226    0.000031
C     0.427575    1.242651   -0.091148   -0.001618    0.001539   -0.000181
O    -2.041686   -1.368881    0.058334    0.001452    0.000402    0.000005
O     0.393893    2.478428   -0.194862    0.000336   -0.001087    0.000101
H     2.576322   -1.791665    0.218541   -1.607046    1.160049   -0.139963
H    -1.625364    1.043629   -0.131998   -0.002877   -0.000267   -0.000070
H     2.556608    0.853742    0.000282    0.137860    0.057219   -0.000877
11
* Frequency(30) 3095.1015
C     1.592226    0.403947    0.010572   -0.009535    0.001326   -0.000372
C     1.376565   -0.937875    0.115111    0.135164   -0.106061    0.012474
N     0.240935   -1.624963    0.140606    0.001802    0.001684   -0.000091
C    -0.898911   -0.884804    0.048870   -0.005386    0.000275   -0.000167
N    -0.762360    0.509017   -0.063354    0.000370   -0.000226    0.000031
C     0.427722    1.242511   -0.091132   -0.001618    0.001539   -0.000181
O    -2.041818   -1.368917    0.058334    0.001452    0.000402    0.000005
O     0.393862    2.478527   -0.194871    0.000336   -0.001087    0.000101
H     2.722437   -1.897139    0.231267   -1.607046    1.160049   -0.139963
H    -1.625102    1.043653   -0.131992   -0.002877   -0.000267   -0.000070
H     2.544073    0.848540    0.000362    0.137860    0.057219   -0.000877
11
* Frequency(30) 3095.1015
C     1.592826    0.403864    0.010595   -0.009535    0.001326   -0.000372
C     1.368047   -0.931192    0.114325    0.135164   -0.106061    0.012474
N     0.240821   -1.625069    0.140612    0.001802    0.001684   -0.000091
C    -0.898572   -0.884821    0.048880   -0.005386    0.000275   -0.000167
N    -0.762383    0.509031   -0.063356    0.000370   -0.000226    0.000031
C     0.427824    1.242414   -0.091121   -0.001618    0.001539   -0.000181
O    -2.041909   -1.368943    0.058333    0.001452    0.000402    0.000005
O     0.393841    2.478595   -0.194877    0.000336   -0.001087    0.000101
H     2.823709   -1.970242    0.240087   -1.607046    1.160049   -0.139963
H    -1.624921    1.043670   -0.131987   -0.002877   -0.000267   -0.000070
H     2.535386    0.844934    0.000417    0.137860    0.057219   -0.000877
11
* Frequency(30) 3095.1015
C     1.593096    0.403826    0.010606   -0.009535    0.001326   -0.000372
C     1.364224   -0.928192    0.113972    0.135164   -0.106061    0.012474
N     0.240770   -1.625117    0.140614    0.001802    0.001684   -0.000091
C    -0.898419   -0.884829    0.048885   -0.005386    0.000275   -0.000167
N    -0.762394    0.509038   -0.063357    0.000370   -0.000226    0.000031
C     0.427870    1.242370   -0.091115   -0.001618    0.001539   -0.000181
O    -2.041950   -1.368954    0.058333    0.001452    0.000402    0.000005
O     0.393831    2.478626   -0.194880    0.000336   -0.001087    0.000101
H     2.869162   -2.003053    0.244046   -1.607046    1.160049   -0.139963
H    -1.624840    1.043677   -0.131985   -0.002877   -0.000267   -0.000070
H     2.531486    0.843316    0.000442    0.137860    0.057219   -0.000877
11
* Frequency(30) 3095.1015
C     1.593005    0.403839    0.010602   -0.009535    0.001326   -0.000372
C     1.365511   -0.929201    0.114090    0.135164   -0.106061    0.012474
N     0.240788   -1.625101    0.140613    0.001802    0.001684   -0.000091
C    -0.898470   -0.884827    0.048883   -0.005386    0.000275   -0.000167
N    -0.762390    0.509036   -0.063357    0.000370   -0.000226    0.000031
C     0.427855    1.242385   -0.091117   -0.001618    0.001539   -0.000181
O    -2.041936   -1.368950    0.058333    0.001452    0.000402    0.000005
O     0.393835    2.478615   -0.194879    0.000336   -0.001087    0.000101
H     2.853872   -1.992016    0.242714   -1.607046    1.160049   -0.139963
H    -1.624867    1.043675   -0.131986   -0.002877   -0.000267   -0.000070
H     2.532798    0.843860    0.000434    0.137860    0.057219   -0.000877
11
* Frequency(30) 3095.1015
C     1.592564    0.403900    0.010585   -0.009535    0.001326   -0.000372
C     1.371766   -0.934110    0.114668    0.135164   -0.106061    0.012474
N     0.240871   -1.625023    0.140609    0.001802    0.001684   -0.000091
C    -0.898720   -0.884814    0.048876   -0.005386    0.000275   -0.000167
N    -0.762373    0.509025   -0.063355    0.000370   -0.000226    0.000031
C     0.427780    1.242456   -0.091126   -0.001618    0.001539   -0.000181
O    -2.041869   -1.368931    0.058333    0.001452    0.000402    0.000005
O     0.393850    2.478565   -0.194874    0.000336   -0.001087    0.000101
H     2.779495   -1.938326    0.236236   -1.607046    1.160049   -0.139963
H    -1.625000    1.043663   -0.131989   -0.002877   -0.000267   -0.000070
H     2.539178    0.846508    0.000393    0.137860    0.057219   -0.000877
11
* Frequency(30) 3095.1015
C     1.591820    0.404004    0.010556   -0.009535    0.001326   -0.000372
C     1.382314   -0.942386    0.115641    0.135164   -0.106061    0.012474
N     0.241012   -1.624892    0.140602    0.001802    0.001684   -0.000091
C    -0.899140   -0.884793    0.048863   -0.005386    0.000275   -0.000167
N    -0.762344    0.509007   -0.063353    0.000370   -0.000226    0.000031
C     0.427654    1.242576   -0.091140   -0.001618    0.001539   -0.000181
O    -2.041756   -1.368900    0.058334    0.001452    0.000402    0.000005
O     0.393876    2.478480   -0.194867    0.000336   -0.001087    0.000101
H     2.654091   -1.847803    0.225314   -1.607046    1.160049   -0.139963
H    -1.625225    1.043642   -0.131995   -0.002877   -0.000267   -0.000070
H     2.549936    0.850973    0.000325    0.137860    0.057219   -0.000877
11
* Frequency(30) 3095.1015
C     1.590854    0.404138    0.010518   -0.009535    0.001326   -0.000372
C     1.396010   -0.953133    0.116905    0.135164   -0.106061    0.012474
N     0.241194   -1.624721    0.140593    0.001802    0.001684   -0.000091
C    -0.899686   -0.884765    0.048846   -0.005386    0.000275   -0.000167
N    -0.762306    0.508984   -0.063350    0.000370   -0.000226    0.000031
C     0.427490    1.242732   -0.091158   -0.001618    0.001539   -0.000181
O    -2.041609   -1.368859    0.058334    0.001452    0.000402    0.000005
O     0.393910    2.478370   -0.194856    0.000336   -0.001087    0.000101
H     2.491250   -1.730256    0.211132   -1.607046    1.160049   -0.139963
H    -1.625516    1.043615   -0.132002   -0.002877   -0.000267   -0.000070
H     2.563905    0.856771    0.000236    0.137860    0.057219   -0.000877
11
* Frequency(30) 3095.1015
C     1.589770    0.404289    0.010476   -0.009535    0.001326   -0.000372
C     1.411370   -0.965186    0.118323    0.135164   -0.106061    0.012474
N     0.241399   -1.624530    0.140582    0.001802    0.001684   -0.000091
C    -0.900298   -0.884733    0.048827   -0.005386    0.000275   -0.000167
N    -0.762264    0.508959   -0.063346    0.000370   -0.000226    0.000031
C     0.427306    1.242907   -0.091179   -0.001618    0.001539   -0.000181
O    -2.041444   -1.368814    0.058335    0.001452    0.000402    0.000005
O     0.393949    2.478247   -0.194845    0.000336   -0.001087    0.000101
H     2.308617   -1.598423    0.195226   -1.607046    1.160049   -0.139963
H    -1.625843    1.043584   -0.132009   -0.002877   -0.000267   -0.000070
H     2.579572    0.863274    0.000136    0.137860    0.057219   -0.000877
