11
* (null), Energy   -1000.0000000
C     1.589770    0.404289    0.010476    0.466182    0.287982   -0.011595
C     1.411370   -0.965186    0.118323   -0.126120    0.242729   -0.022962
N     0.241399   -1.624530    0.140582    0.094752   -0.847419    0.073610
C    -0.900298   -0.884733    0.048827   -0.079375    0.028393   -0.005789
N    -0.762264    0.508959   -0.063346   -0.423148    0.573632   -0.059172
C     0.427306    1.242907   -0.091179    0.116858   -0.089269    0.011034
O    -2.041444   -1.368814    0.058335    0.020108   -0.005771    0.001189
O     0.393949    2.478247   -0.194845   -0.058511   -0.235399    0.017917
H     2.308617   -1.598423    0.195226    0.178019    0.665154   -0.058417
H    -1.625843    1.043584   -0.132009   -0.051127    1.215789   -0.102088
H     2.579572    0.863274    0.000136    0.547256    0.153009    0.005888
11
* Frequency(18)  975.4366
C     1.642749    0.437016    0.009158    0.466182    0.287982   -0.011595
C     1.397038   -0.937602    0.115713   -0.126120    0.242729   -0.022962
N     0.252167   -1.720834    0.148948    0.094752   -0.847419    0.073610
C    -0.909318   -0.881507    0.048169   -0.079375    0.028393   -0.005789
N    -0.810353    0.574149   -0.070071   -0.423148    0.573632   -0.059172
C     0.440586    1.232762   -0.089925    0.116858   -0.089269    0.011034
O    -2.039158   -1.369470    0.058470    0.020108   -0.005771    0.001189
O     0.387299    2.451495   -0.192809   -0.058511   -0.235399    0.017917
H     2.328848   -1.522831    0.188587    0.178019    0.665154   -0.058417
H    -1.631653    1.181753   -0.143611   -0.051127    1.215789   -0.102088
H     2.641765    0.880663    0.000805    0.547256    0.153009    0.005888
11
* Frequency(18)  975.4366
C     1.689987    0.466197    0.007983    0.466182    0.287982   -0.011595
C     1.384258   -0.913006    0.113387   -0.126120    0.242729   -0.022962
N     0.261768   -1.806703    0.156407    0.094752   -0.847419    0.073610
C    -0.917362   -0.878630    0.047582   -0.079375    0.028393   -0.005789
N    -0.853230    0.632275   -0.076066   -0.423148    0.573632   -0.059172
C     0.452427    1.223717   -0.088807    0.116858   -0.089269    0.011034
O    -2.037121   -1.370054    0.058591    0.020108   -0.005771    0.001189
O     0.381370    2.427642   -0.190993   -0.058511   -0.235399    0.017917
H     2.346887   -1.455431    0.182668    0.178019    0.665154   -0.058417
H    -1.636834    1.304948   -0.153956   -0.051127    1.215789   -0.102088
H     2.697219    0.896167    0.001402    0.547256    0.153009    0.005888
11
* Frequency(18)  975.4366
C     1.726365    0.488670    0.007079    0.466182    0.287982   -0.011595
C     1.374416   -0.894065    0.111595   -0.126120    0.242729   -0.022962
N     0.269162   -1.872830    0.162151    0.094752   -0.847419    0.073610
C    -0.923555   -0.876414    0.047131   -0.079375    0.028393   -0.005789
N    -0.886250    0.677038   -0.080684   -0.423148    0.573632   -0.059172
C     0.461546    1.216751   -0.087946    0.116858   -0.089269    0.011034
O    -2.035552   -1.370505    0.058684    0.020108   -0.005771    0.001189
O     0.376804    2.409273   -0.189595   -0.058511   -0.235399    0.017917
H     2.360778   -1.403527    0.178109    0.178019    0.665154   -0.058417
H    -1.640824    1.399821   -0.161922   -0.051127    1.215789   -0.102088
H     2.739923    0.908107    0.001862    0.547256    0.153009    0.005888
11
* Frequency(18)  975.4366
C     1.747941    0.501998    0.006542    0.466182    0.287982   -0.011595
C     1.368579   -0.882831    0.110532   -0.126120    0.242729   -0.022962
N     0.273547   -1.912051    0.165557    0.094752   -0.847419    0.073610
C    -0.927229   -0.875100    0.046863   -0.079375    0.028393   -0.005789
N    -0.905834    0.703587   -0.083422   -0.423148    0.573632   -0.059172
C     0.466955    1.212619   -0.087435    0.116858   -0.089269    0.011034
O    -2.034621   -1.370772    0.058739    0.020108   -0.005771    0.001189
O     0.374096    2.398378   -0.188766   -0.058511   -0.235399    0.017917
H     2.369017   -1.372742    0.175405    0.178019    0.665154   -0.058417
H    -1.643190    1.456090   -0.166647   -0.051127    1.215789   -0.102088
H     2.765251    0.915189    0.002134    0.547256    0.153009    0.005888
11
* Frequency(18)  975.4366
C     1.752377    0.504738    0.006432    0.466182    0.287982   -0.011595
C     1.367379   -0.880522    0.110314   -0.126120    0.242729   -0.022962
N     0.274449   -1.920113    0.166258    0.094752   -0.847419    0.073610
C    -0.927984   -0.874830    0.046808   -0.079375    0.028393   -0.005789
N    -0.909860    0.709044   -0.083985   -0.423148    0.573632   -0.059172
C     0.468066    1.211770   -0.087330    0.116858   -0.089269    0.011034
O    -2.034430   -1.370827    0.058750    0.020108   -0.005771    0.001189
O     0.373540    2.396138   -0.188595   -0.058511   -0.235399    0.017917
H     2.370711   -1.366414    0.174850    0.178019    0.665154   -0.058417
H    -1.643676    1.467657   -0.167618   -0.051127    1.215789   -0.102088
H     2.770458    0.916644    0.002190    0.547256    0.153009    0.005888
11
* Frequency(18)  975.4366
C     1.739191    0.496593    0.006760    0.466182    0.287982   -0.011595
C     1.370946   -0.887387    0.110963   -0.126120    0.242729   -0.022962
N     0.271769   -1.896145    0.164176    0.094752   -0.847419    0.073610
C    -0.925739   -0.875633    0.046971   -0.079375    0.028393   -0.005789
N    -0.897892    0.692820   -0.082312   -0.423148    0.573632   -0.059172
C     0.464761    1.214295   -0.087642    0.116858   -0.089269    0.011034
O    -2.034998   -1.370663    0.058716    0.020108   -0.005771    0.001189
O     0.375195    2.402796   -0.189102   -0.058511   -0.235399    0.017917
H     2.365676   -1.385227    0.176502    0.178019    0.665154   -0.058417
H    -1.642230    1.433270   -0.164731   -0.051127    1.215789   -0.102088
H     2.754979    0.912317    0.002024    0.547256    0.153009    0.005888
11
* Frequency(18)  975.4366
C     1.709814    0.478445    0.007490    0.466182    0.287982   -0.011595
C     1.378894   -0.902683    0.112410   -0.126120    0.242729   -0.022962
N     0.265798   -1.842743    0.159537    0.094752   -0.847419    0.073610
C    -0.920737   -0.877422    0.047336   -0.079375    0.028393   -0.005789
N    -0.871226    0.656671   -0.078583   -0.423148    0.573632   -0.059172
C     0.457397    1.219920   -0.088337    0.116858   -0.089269    0.011034
O    -2.036266   -1.370300    0.058641    0.020108   -0.005771    0.001189
O     0.378882    2.417631   -0.190231   -0.058511   -0.235399    0.017917
H     2.354458   -1.427143    0.180183    0.178019    0.665154   -0.058417
H    -1.639008    1.356654   -0.158297   -0.051127    1.215789   -0.102088
H     2.720493    0.902675    0.001652    0.547256    0.153009    0.005888
11
* Frequency(18)  975.4366
C     1.667427    0.452261    0.008544    0.466182    0.287982   -0.011595
C     1.390361   -0.924752    0.114498   -0.126120    0.242729   -0.022962
N     0.257183   -1.765694    0.152844    0.094752   -0.847419    0.073610
C    -0.913520   -0.880004    0.047863   -0.079375    0.028393   -0.005789
N    -0.832753    0.604515   -0.073203   -0.423148    0.573632   -0.059172
C     0.446772    1.228036   -0.089341    0.116858   -0.089269    0.011034
O    -2.038094   -1.369775    0.058533    0.020108   -0.005771    0.001189
O     0.384202    2.439034   -0.191860   -0.058511   -0.235399    0.017917
H     2.338272   -1.487620    0.185495    0.178019    0.665154   -0.058417
H    -1.634360    1.246112   -0.149015   -0.051127    1.215789   -0.102088
H     2.670735    0.888763    0.001117    0.547256    0.153009    0.005888
11
* Frequency(18)  975.4366
C     1.616626    0.420879    0.009808    0.466182    0.287982   -0.011595
C     1.404105   -0.951203    0.117000   -0.126120    0.242729   -0.022962
N     0.246857   -1.673348    0.144823    0.094752   -0.847419    0.073610
C    -0.904871   -0.883098    0.048493   -0.079375    0.028393   -0.005789
N    -0.786641    0.542005   -0.066755   -0.423148    0.573632   -0.059172
C     0.434038    1.237764   -0.090543    0.116858   -0.089269    0.011034
O    -2.040285   -1.369146    0.058404    0.020108   -0.005771    0.001189
O     0.390578    2.464686   -0.193813   -0.058511   -0.235399    0.017917
H     2.318873   -1.560104    0.191861    0.178019    0.665154   -0.058417
H    -1.628788    1.113624   -0.137891   -0.051127    1.215789   -0.102088
H     2.611099    0.872089    0.000476    0.547256    0.153009    0.005888
11
* Frequency(18)  975.4366
C     1.562914    0.387699    0.011144    0.466182    0.287982   -0.011595
C     1.418636   -0.979170    0.119646   -0.126120    0.242729   -0.022962
N     0.235940   -1.575711    0.136342    0.094752   -0.847419    0.073610
C    -0.895725   -0.886369    0.049160   -0.079375    0.028393   -0.005789
N    -0.737888    0.475913   -0.059937   -0.423148    0.573632   -0.059172
C     0.420574    1.248050   -0.091814    0.116858   -0.089269    0.011034
O    -2.042602   -1.368481    0.058266    0.020108   -0.005771    0.001189
O     0.397319    2.491808   -0.195877   -0.058511   -0.235399    0.017917
H     2.298362   -1.636741    0.198591    0.178019    0.665154   -0.058417
H    -1.622898    0.973545   -0.126128   -0.051127    1.215789   -0.102088
H     2.548046    0.854460   -0.000203    0.547256    0.153009    0.005888
11
* Frequency(18)  975.4366
C     1.512113    0.356316    0.012407    0.466182    0.287982   -0.011595
C     1.432380   -1.005620    0.122148   -0.126120    0.242729   -0.022962
N     0.225615   -1.483365    0.128320    0.094752   -0.847419    0.073610
C    -0.887076   -0.889463    0.049791   -0.079375    0.028393   -0.005789
N    -0.691776    0.413402   -0.053489   -0.423148    0.573632   -0.059172
C     0.407839    1.257778   -0.093017    0.116858   -0.089269    0.011034
O    -2.044793   -1.367853    0.058137    0.020108   -0.005771    0.001189
O     0.403695    2.517460   -0.197829   -0.058511   -0.235399    0.017917
H     2.278963   -1.709225    0.204957    0.178019    0.665154   -0.058417
H    -1.617326    0.841056   -0.115004   -0.051127    1.215789   -0.102088
H     2.488410    0.837786   -0.000845    0.547256    0.153009    0.005888
11
* Frequency(18)  975.4366
C     1.469727    0.330132    0.013461    0.466182    0.287982   -0.011595
C     1.443847   -1.027690    0.124236   -0.126120    0.242729   -0.022962
N     0.217000   -1.406316    0.121627    0.094752   -0.847419    0.073610
C    -0.879859   -0.892045    0.050317   -0.079375    0.028393   -0.005789
N    -0.653302    0.361247   -0.048109   -0.423148    0.573632   -0.059172
C     0.397214    1.265894   -0.094020    0.116858   -0.089269    0.011034
O    -2.046622   -1.367328    0.058029    0.020108   -0.005771    0.001189
O     0.409015    2.538863   -0.199458   -0.058511   -0.235399    0.017917
H     2.262777   -1.769702    0.210268    0.178019    0.665154   -0.058417
H    -1.612678    0.730515   -0.105722   -0.051127    1.215789   -0.102088
H     2.438652    0.823874   -0.001380    0.547256    0.153009    0.005888
11
* Frequency(18)  975.4366
C     1.440349    0.311985    0.014192    0.466182    0.287982   -0.011595
C     1.451794   -1.042986    0.125683   -0.126120    0.242729   -0.022962
N     0.211029   -1.352914    0.116989    0.094752   -0.847419    0.073610
C    -0.874857   -0.893834    0.050682   -0.079375    0.028393   -0.005789
N    -0.626637    0.325098   -0.044380   -0.423148    0.573632   -0.059172
C     0.389850    1.271520   -0.094715    0.116858   -0.089269    0.011034
O    -2.047889   -1.366964    0.057954    0.020108   -0.005771    0.001189
O     0.412703    2.553697   -0.200587   -0.058511   -0.235399    0.017917
H     2.251559   -1.811618    0.213950    0.178019    0.665154   -0.058417
H    -1.609456    0.653899   -0.099288   -0.051127    1.215789   -0.102088
H     2.404165    0.814232   -0.001751    0.547256    0.153009    0.005888
11
* Frequency(18)  975.4366
C     1.427164    0.303839    0.014520    0.466182    0.287982   -0.011595
C     1.455362   -1.049851    0.126332   -0.126120    0.242729   -0.022962
N     0.208349   -1.328946    0.114907    0.094752   -0.847419    0.073610
C    -0.872612   -0.894637    0.050846   -0.079375    0.028393   -0.005789
N    -0.614668    0.308873   -0.042707   -0.423148    0.573632   -0.059172
C     0.386545    1.274044   -0.095027    0.116858   -0.089269    0.011034
O    -2.048457   -1.366801    0.057920    0.020108   -0.005771    0.001189
O     0.414357    2.560355   -0.201094   -0.058511   -0.235399    0.017917
H     2.246524   -1.830431    0.215602    0.178019    0.665154   -0.058417
H    -1.608010    0.619512   -0.096401   -0.051127    1.215789   -0.102088
H     2.388687    0.809904   -0.001917    0.547256    0.153009    0.005888
11
* Frequency(18)  975.4366
C     1.431599    0.306579    0.014410    0.466182    0.287982   -0.011595
C     1.454162   -1.047542    0.126114   -0.126120    0.242729   -0.022962
N     0.209250   -1.337009    0.115607    0.094752   -0.847419    0.073610
C    -0.873367   -0.894367    0.050791   -0.079375    0.028393   -0.005789
N    -0.618695    0.314331   -0.043270   -0.423148    0.573632   -0.059172
C     0.387657    1.273195   -0.094922    0.116858   -0.089269    0.011034
O    -2.048266   -1.366856    0.057931    0.020108   -0.005771    0.001189
O     0.413801    2.558115   -0.200924   -0.058511   -0.235399    0.017917
H     2.248217   -1.824103    0.215046    0.178019    0.665154   -0.058417
H    -1.608496    0.631079   -0.097372   -0.051127    1.215789   -0.102088
H     2.393894    0.811360   -0.001861    0.547256    0.153009    0.005888
11
* Frequency(18)  975.4366
C     1.453175    0.319908    0.013873    0.466182    0.287982   -0.011595
C     1.448325   -1.036308    0.125051   -0.126120    0.242729   -0.022962
N     0.213636   -1.376229    0.119014    0.094752   -0.847419    0.073610
C    -0.877040   -0.893053    0.050523   -0.079375    0.028393   -0.005789
N    -0.638279    0.340880   -0.046008   -0.423148    0.573632   -0.059172
C     0.393065    1.269064   -0.094412    0.116858   -0.089269    0.011034
O    -2.047336   -1.367123    0.057986    0.020108   -0.005771    0.001189
O     0.411093    2.547221   -0.200095   -0.058511   -0.235399    0.017917
H     2.256456   -1.793318    0.212343    0.178019    0.665154   -0.058417
H    -1.610863    0.687348   -0.102097   -0.051127    1.215789   -0.102088
H     2.419222    0.818441   -0.001589    0.547256    0.153009    0.005888
11
* Frequency(18)  975.4366
C     1.489553    0.342380    0.012968    0.466182    0.287982   -0.011595
C     1.438483   -1.017367    0.123259   -0.126120    0.242729   -0.022962
N     0.221030   -1.442356    0.124758    0.094752   -0.847419    0.073610
C    -0.883234   -0.890837    0.050071   -0.079375    0.028393   -0.005789
N    -0.671298    0.385642   -0.050626   -0.423148    0.573632   -0.059172
C     0.402184    1.262098   -0.093551    0.116858   -0.089269    0.011034
O    -2.045766   -1.367573    0.058079    0.020108   -0.005771    0.001189
O     0.406527    2.528852   -0.198696   -0.058511   -0.235399    0.017917
H     2.270348   -1.741414    0.207784    0.178019    0.665154   -0.058417
H    -1.614852    0.782221   -0.110063   -0.051127    1.215789   -0.102088
H     2.461926    0.830381   -0.001129    0.547256    0.153009    0.005888
11
* Frequency(18)  975.4366
C     1.536791    0.371561    0.011794    0.466182    0.287982   -0.011595
C     1.425703   -0.992771    0.120932   -0.126120    0.242729   -0.022962
N     0.230631   -1.528225    0.132217    0.094752   -0.847419    0.073610
C    -0.891277   -0.887960    0.049485   -0.079375    0.028393   -0.005789
N    -0.714176    0.443768   -0.056622   -0.423148    0.573632   -0.059172
C     0.414025    1.253052   -0.092433    0.116858   -0.089269    0.011034
O    -2.043729   -1.368158    0.058200    0.020108   -0.005771    0.001189
O     0.400598    2.504999   -0.196881   -0.058511   -0.235399    0.017917
H     2.288386   -1.674014    0.201865    0.178019    0.665154   -0.058417
H    -1.620033    0.905416   -0.120408   -0.051127    1.215789   -0.102088
H     2.517380    0.845885   -0.000533    0.547256    0.153009    0.005888
11
* Frequency(18)  975.4366
C     1.589770    0.404289    0.010476    0.466182    0.287982   -0.011595
C     1.411370   -0.965186    0.118323   -0.126120    0.242729   -0.022962
N     0.241399   -1.624530    0.140582    0.094752   -0.847419    0.073610
C    -0.900298   -0.884733    0.048827   -0.079375    0.028393   -0.005789
N    -0.762264    0.508959   -0.063346   -0.423148    0.573632   -0.059172
C     0.427306    1.242907   -0.091179    0.116858   -0.089269    0.011034
O    -2.041444   -1.368814    0.058335    0.020108   -0.005771    0.001189
O     0.393949    2.478247   -0.194845   -0.058511   -0.235399    0.017917
H     2.308617   -1.598423    0.195226    0.178019    0.665154   -0.058417
H    -1.625843    1.043584   -0.132009   -0.051127    1.215789   -0.102088
H     2.579572    0.863274    0.000136    0.547256    0.153009    0.005888
