11
* (null), Energy   -1000.0000000
C     1.356566    0.572472   -0.019574    0.153074    0.533283   -0.039105
C     1.179217   -0.796685    0.088575    0.024758    0.612658   -0.050248
N     0.008210   -1.454494    0.110838    0.164596   -0.122958    0.015015
C    -1.131376   -0.714764    0.018532   -0.237831   -0.633365    0.045820
N    -0.995238    0.677642   -0.092617    0.197583   -0.539396    0.048878
C     0.194158    1.409660   -0.120689    0.018150   -0.007657    0.001596
O    -2.273001   -1.200862    0.028059   -0.709213    0.163838   -0.033121
O     0.161758    2.645985   -0.224814    0.401620   -0.018263    0.012055
H     2.075560   -1.430341    0.165515    0.184015    0.846778   -0.068072
H    -1.858608    1.212888   -0.161920    0.101987   -0.693714    0.075508
H     2.345944    1.032379   -0.030255    0.061993    0.723865   -0.061233
11
* Frequency(12)  610.8539
C     1.373963    0.633077   -0.024018    0.153074    0.533283   -0.039105
C     1.182031   -0.727059    0.082865    0.024758    0.612658   -0.050248
N     0.026915   -1.468468    0.112544    0.164596   -0.122958    0.015015
C    -1.158404   -0.786743    0.023739   -0.237831   -0.633365    0.045820
N    -0.972784    0.616343   -0.087062    0.197583   -0.539396    0.048878
C     0.196220    1.408789   -0.120507    0.018150   -0.007657    0.001596
O    -2.353599   -1.182243    0.024295   -0.709213    0.163838   -0.033121
O     0.207400    2.643910   -0.223444    0.401620   -0.018263    0.012055
H     2.096472   -1.334109    0.157779    0.184015    0.846778   -0.068072
H    -1.847018    1.134051   -0.153339    0.101987   -0.693714    0.075508
H     2.352990    1.114643   -0.037213    0.061993    0.723865   -0.061233
11
* Frequency(12)  610.8539
C     1.389473    0.687114   -0.027980    0.153074    0.533283   -0.039105
C     1.184539   -0.664979    0.077773    0.024758    0.612658   -0.050248
N     0.043594   -1.480927    0.114066    0.164596   -0.122958    0.015015
C    -1.182503   -0.850921    0.028382   -0.237831   -0.633365    0.045820
N    -0.952763    0.561686   -0.082109    0.197583   -0.539396    0.048878
C     0.198059    1.408014   -0.120346    0.018150   -0.007657    0.001596
O    -2.425464   -1.165641    0.020939   -0.709213    0.163838   -0.033121
O     0.248096    2.642059   -0.222222    0.401620   -0.018263    0.012055
H     2.115118   -1.248305    0.150881    0.184015    0.846778   -0.068072
H    -1.836684    1.063757   -0.145688    0.101987   -0.693714    0.075508
H     2.359271    1.187992   -0.043418    0.061993    0.723865   -0.061233
11
* Frequency(12)  610.8539
C     1.401418    0.728728   -0.031032    0.153074    0.533283   -0.039105
C     1.186471   -0.617171    0.073852    0.024758    0.612658   -0.050248
N     0.056438   -1.490522    0.115237    0.164596   -0.122958    0.015015
C    -1.201062   -0.900345    0.031957   -0.237831   -0.633365    0.045820
N    -0.937345    0.519595   -0.078295    0.197583   -0.539396    0.048878
C     0.199476    1.407416   -0.120221    0.018150   -0.007657    0.001596
O    -2.480806   -1.152856    0.018354   -0.709213    0.163838   -0.033121
O     0.279436    2.640634   -0.221282    0.401620   -0.018263    0.012055
H     2.129477   -1.182228    0.145569    0.184015    0.846778   -0.068072
H    -1.828725    1.009624   -0.139796    0.101987   -0.693714    0.075508
H     2.364109    1.244478   -0.048196    0.061993    0.723865   -0.061233
11
* Frequency(12)  610.8539
C     1.408503    0.753409   -0.032841    0.153074    0.533283   -0.039105
C     1.187617   -0.588816    0.071527    0.024758    0.612658   -0.050248
N     0.064056   -1.496213    0.115932    0.164596   -0.122958    0.015015
C    -1.212070   -0.929659    0.034078   -0.237831   -0.633365    0.045820
N    -0.928200    0.494631   -0.076033    0.197583   -0.539396    0.048878
C     0.200316    1.407062   -0.120147    0.018150   -0.007657    0.001596
O    -2.513630   -1.145274    0.016821   -0.709213    0.163838   -0.033121
O     0.298024    2.639789   -0.220724    0.401620   -0.018263    0.012055
H     2.137994   -1.143037    0.142418    0.184015    0.846778   -0.068072
H    -1.824005    0.977517   -0.136301    0.101987   -0.693714    0.075508
H     2.366978    1.277979   -0.051030    0.061993    0.723865   -0.061233
11
* Frequency(12)  610.8539
C     1.409959    0.758483   -0.033214    0.153074    0.533283   -0.039105
C     1.187853   -0.582987    0.071049    0.024758    0.612658   -0.050248
N     0.065622   -1.497382    0.116075    0.164596   -0.122958    0.015015
C    -1.214332   -0.935685    0.034514   -0.237831   -0.633365    0.045820
N    -0.926320    0.489499   -0.075568    0.197583   -0.539396    0.048878
C     0.200488    1.406989   -0.120132    0.018150   -0.007657    0.001596
O    -2.520378   -1.143715    0.016506   -0.709213    0.163838   -0.033121
O     0.301845    2.639615   -0.220609    0.401620   -0.018263    0.012055
H     2.139745   -1.134981    0.141771    0.184015    0.846778   -0.068072
H    -1.823035    0.970917   -0.135583    0.101987   -0.693714    0.075508
H     2.367568    1.284867   -0.051613    0.061993    0.723865   -0.061233
11
* Frequency(12)  610.8539
C     1.405630    0.743400   -0.032108    0.153074    0.533283   -0.039105
C     1.187153   -0.600315    0.072470    0.024758    0.612658   -0.050248
N     0.060966   -1.493905    0.115651    0.164596   -0.122958    0.015015
C    -1.207606   -0.917771    0.033218   -0.237831   -0.633365    0.045820
N    -0.931909    0.504755   -0.076950    0.197583   -0.539396    0.048878
C     0.199975    1.407205   -0.120177    0.018150   -0.007657    0.001596
O    -2.500318   -1.148349    0.017443   -0.709213    0.163838   -0.033121
O     0.290486    2.640132   -0.220950    0.401620   -0.018263    0.012055
H     2.134540   -1.158931    0.143696    0.184015    0.846778   -0.068072
H    -1.825919    0.990538   -0.137718    0.101987   -0.693714    0.075508
H     2.365815    1.264393   -0.049881    0.061993    0.723865   -0.061233
11
* Frequency(12)  610.8539
C     1.395983    0.709794   -0.029643    0.153074    0.533283   -0.039105
C     1.185592   -0.638923    0.075636    0.024758    0.612658   -0.050248
N     0.050594   -1.486156    0.114704    0.164596   -0.122958    0.015015
C    -1.192618   -0.877858    0.030330   -0.237831   -0.633365    0.045820
N    -0.944360    0.538746   -0.080031    0.197583   -0.539396    0.048878
C     0.198831    1.407688   -0.120278    0.018150   -0.007657    0.001596
O    -2.455626   -1.158673    0.019530   -0.709213    0.163838   -0.033121
O     0.265177    2.641283   -0.221710    0.401620   -0.018263    0.012055
H     2.122944   -1.212293    0.147986    0.184015    0.846778   -0.068072
H    -1.832346    1.034254   -0.142477    0.101987   -0.693714    0.075508
H     2.361908    1.218777   -0.046022    0.061993    0.723865   -0.061233
11
* Frequency(12)  610.8539
C     1.382066    0.661307   -0.026088    0.153074    0.533283   -0.039105
C     1.183341   -0.694627    0.080205    0.024758    0.612658   -0.050248
N     0.035629   -1.474977    0.113339    0.164596   -0.122958    0.015015
C    -1.170994   -0.820271    0.026164   -0.237831   -0.633365    0.045820
N    -0.962325    0.587789   -0.084475    0.197583   -0.539396    0.048878
C     0.197181    1.408384   -0.120423    0.018150   -0.007657    0.001596
O    -2.391143   -1.173570    0.022541   -0.709213    0.163838   -0.033121
O     0.228661    2.642943   -0.222806    0.401620   -0.018263    0.012055
H     2.106213   -1.289283    0.154175    0.184015    0.846778   -0.068072
H    -1.841619    1.097328   -0.149342    0.101987   -0.693714    0.075508
H     2.356271    1.152962   -0.040455    0.061993    0.723865   -0.061233
11
* Frequency(12)  610.8539
C     1.365385    0.603193   -0.021826    0.153074    0.533283   -0.039105
C     1.180643   -0.761391    0.085681    0.024758    0.612658   -0.050248
N     0.017692   -1.461578    0.111703    0.164596   -0.122958    0.015015
C    -1.145077   -0.751251    0.021171   -0.237831   -0.633365    0.045820
N    -0.983856    0.646569   -0.089801    0.197583   -0.539396    0.048878
C     0.195203    1.409218   -0.120597    0.018150   -0.007657    0.001596
O    -2.313857   -1.191424    0.026151   -0.709213    0.163838   -0.033121
O     0.184895    2.644933   -0.224120    0.401620   -0.018263    0.012055
H     2.086160   -1.381559    0.161593    0.184015    0.846778   -0.068072
H    -1.852733    1.172924   -0.157570    0.101987   -0.693714    0.075508
H     2.349516    1.074080   -0.033782    0.061993    0.723865   -0.061233
11
* Frequency(12)  610.8539
C     1.347748    0.541750   -0.017321    0.153074    0.533283   -0.039105
C     1.177791   -0.831979    0.091470    0.024758    0.612658   -0.050248
N    -0.001272   -1.447411    0.109973    0.164596   -0.122958    0.015015
C    -1.117675   -0.678277    0.015892   -0.237831   -0.633365    0.045820
N    -1.006621    0.708716   -0.095433    0.197583   -0.539396    0.048878
C     0.193112    1.410101   -0.120781    0.018150   -0.007657    0.001596
O    -2.232145   -1.210301    0.029967   -0.709213    0.163838   -0.033121
O     0.138622    2.647038   -0.225508    0.401620   -0.018263    0.012055
H     2.064959   -1.479122    0.169436    0.184015    0.846778   -0.068072
H    -1.864483    1.252851   -0.166270    0.101987   -0.693714    0.075508
H     2.342373    0.990679   -0.026727    0.061993    0.723865   -0.061233
11
* Frequency(12)  610.8539
C     1.331067    0.483637   -0.013060    0.153074    0.533283   -0.039105
C     1.175093   -0.898742    0.096946    0.024758    0.612658   -0.050248
N    -0.019209   -1.434012    0.108337    0.164596   -0.122958    0.015015
C    -1.091757   -0.609257    0.010899   -0.237831   -0.633365    0.045820
N    -1.028152    0.767496   -0.100759    0.197583   -0.539396    0.048878
C     0.191134    1.410935   -0.120955    0.018150   -0.007657    0.001596
O    -2.154859   -1.228155    0.033576   -0.709213    0.163838   -0.033121
O     0.094856    2.649028   -0.226822    0.401620   -0.018263    0.012055
H     2.044906   -1.571398    0.176854    0.184015    0.846778   -0.068072
H    -1.875597    1.328448   -0.174498    0.101987   -0.693714    0.075508
H     2.335617    0.911797   -0.020054    0.061993    0.723865   -0.061233
11
* Frequency(12)  610.8539
C     1.317150    0.435150   -0.009504    0.153074    0.533283   -0.039105
C     1.172842   -0.954446    0.101514    0.024758    0.612658   -0.050248
N    -0.034174   -1.422832    0.106972    0.164596   -0.122958    0.015015
C    -1.070133   -0.551671    0.006733   -0.237831   -0.633365    0.045820
N    -1.046117    0.816539   -0.105203    0.197583   -0.539396    0.048878
C     0.189484    1.411631   -0.121100    0.018150   -0.007657    0.001596
O    -2.090376   -1.243051    0.036588   -0.709213    0.163838   -0.033121
O     0.058340    2.650688   -0.227918    0.401620   -0.018263    0.012055
H     2.028175   -1.648389    0.183043    0.184015    0.846778   -0.068072
H    -1.884870    1.391521   -0.181364    0.101987   -0.693714    0.075508
H     2.329981    0.845982   -0.014487    0.061993    0.723865   -0.061233
11
* Frequency(12)  610.8539
C     1.307503    0.401544   -0.007040    0.153074    0.533283   -0.039105
C     1.171282   -0.993054    0.104681    0.024758    0.612658   -0.050248
N    -0.044546   -1.415084    0.106026    0.164596   -0.122958    0.015015
C    -1.055146   -0.511758    0.003845   -0.237831   -0.633365    0.045820
N    -1.058568    0.850530   -0.108283    0.197583   -0.539396    0.048878
C     0.188340    1.412114   -0.121200    0.018150   -0.007657    0.001596
O    -2.045684   -1.253376    0.038675   -0.709213    0.163838   -0.033121
O     0.033031    2.651839   -0.228678    0.401620   -0.018263    0.012055
H     2.016579   -1.701751    0.187333    0.184015    0.846778   -0.068072
H    -1.891297    1.435237   -0.186122    0.101987   -0.693714    0.075508
H     2.326074    0.800366   -0.010628    0.061993    0.723865   -0.061233
11
* Frequency(12)  610.8539
C     1.303174    0.386460   -0.005934    0.153074    0.533283   -0.039105
C     1.170581   -1.010383    0.106102    0.024758    0.612658   -0.050248
N    -0.049202   -1.411606    0.105601    0.164596   -0.122958    0.015015
C    -1.048419   -0.493844    0.002549   -0.237831   -0.633365    0.045820
N    -1.064156    0.865786   -0.109666    0.197583   -0.539396    0.048878
C     0.187827    1.412330   -0.121246    0.018150   -0.007657    0.001596
O    -2.025624   -1.258010    0.039611   -0.709213    0.163838   -0.033121
O     0.021671    2.652356   -0.229019    0.401620   -0.018263    0.012055
H     2.011374   -1.725701    0.189258    0.184015    0.846778   -0.068072
H    -1.894182    1.454858   -0.188258    0.101987   -0.693714    0.075508
H     2.324321    0.779892   -0.008896    0.061993    0.723865   -0.061233
11
* Frequency(12)  610.8539
C     1.304630    0.391534   -0.006306    0.153074    0.533283   -0.039105
C     1.170817   -1.004553    0.105624    0.024758    0.612658   -0.050248
N    -0.047636   -1.412776    0.105744    0.164596   -0.122958    0.015015
C    -1.050682   -0.499870    0.002985   -0.237831   -0.633365    0.045820
N    -1.062276    0.860654   -0.109201    0.197583   -0.539396    0.048878
C     0.188000    1.412257   -0.121230    0.018150   -0.007657    0.001596
O    -2.032372   -1.256451    0.039296   -0.709213    0.163838   -0.033121
O     0.025492    2.652182   -0.228904    0.401620   -0.018263    0.012055
H     2.013125   -1.717644    0.188611    0.184015    0.846778   -0.068072
H    -1.893211    1.448258   -0.187539    0.101987   -0.693714    0.075508
H     2.324911    0.786779   -0.009479    0.061993    0.723865   -0.061233
11
* Frequency(12)  610.8539
C     1.311715    0.416215   -0.008116    0.153074    0.533283   -0.039105
C     1.171963   -0.976199    0.103298    0.024758    0.612658   -0.050248
N    -0.040018   -1.418467    0.106439    0.164596   -0.122958    0.015015
C    -1.061689   -0.529183    0.005106   -0.237831   -0.633365    0.045820
N    -1.053132    0.835690   -0.106939    0.197583   -0.539396    0.048878
C     0.188840    1.411903   -0.121157    0.018150   -0.007657    0.001596
O    -2.065196   -1.248868    0.037763   -0.709213    0.163838   -0.033121
O     0.044080    2.651337   -0.228346    0.401620   -0.018263    0.012055
H     2.021642   -1.678454    0.185460    0.184015    0.846778   -0.068072
H    -1.888491    1.416152   -0.184045    0.101987   -0.693714    0.075508
H     2.327780    0.820281   -0.012313    0.061993    0.723865   -0.061233
11
* Frequency(12)  610.8539
C     1.323660    0.457830   -0.011167    0.153074    0.533283   -0.039105
C     1.173895   -0.928390    0.099377    0.024758    0.612658   -0.050248
N    -0.027174   -1.428061    0.107610    0.164596   -0.122958    0.015015
C    -1.080248   -0.578607    0.008682   -0.237831   -0.633365    0.045820
N    -1.037714    0.793599   -0.103125    0.197583   -0.539396    0.048878
C     0.190256    1.411306   -0.121032    0.018150   -0.007657    0.001596
O    -2.120538   -1.236084    0.035179   -0.709213    0.163838   -0.033121
O     0.075420    2.649911   -0.227406    0.401620   -0.018263    0.012055
H     2.036001   -1.612376    0.180148    0.184015    0.846778   -0.068072
H    -1.880533    1.362019   -0.178153    0.101987   -0.693714    0.075508
H     2.332617    0.876767   -0.017091    0.061993    0.723865   -0.061233
11
* Frequency(12)  610.8539
C     1.339170    0.511867   -0.015130    0.153074    0.533283   -0.039105
C     1.176403   -0.866310    0.094286    0.024758    0.612658   -0.050248
N    -0.010495   -1.440521    0.109132    0.164596   -0.122958    0.015015
C    -1.104347   -0.642786    0.013324   -0.237831   -0.633365    0.045820
N    -1.017693    0.738942   -0.098172    0.197583   -0.539396    0.048878
C     0.192095    1.410530   -0.120870    0.018150   -0.007657    0.001596
O    -2.192403   -1.219482    0.031823   -0.709213    0.163838   -0.033121
O     0.116116    2.648061   -0.226184    0.401620   -0.018263    0.012055
H     2.054647   -1.526573    0.173251    0.184015    0.846778   -0.068072
H    -1.870198    1.291725   -0.170501    0.101987   -0.693714    0.075508
H     2.338899    0.950116   -0.023296    0.061993    0.723865   -0.061233
11
* Frequency(12)  610.8539
C     1.356566    0.572472   -0.019574    0.153074    0.533283   -0.039105
C     1.179217   -0.796685    0.088575    0.024758    0.612658   -0.050248
N     0.008210   -1.454494    0.110838    0.164596   -0.122958    0.015015
C    -1.131376   -0.714764    0.018532   -0.237831   -0.633365    0.045820
N    -0.995238    0.677642   -0.092617    0.197583   -0.539396    0.048878
C     0.194158    1.409660   -0.120689    0.018150   -0.007657    0.001596
O    -2.273001   -1.200862    0.028059   -0.709213    0.163838   -0.033121
O     0.161758    2.645985   -0.224814    0.401620   -0.018263    0.012055
H     2.075560   -1.430341    0.165515    0.184015    0.846778   -0.068072
H    -1.858608    1.212888   -0.161920    0.101987   -0.693714    0.075508
H     2.345944    1.032379   -0.030255    0.061993    0.723865   -0.061233
