11
* (null), Energy   -1000.0000000
C     1.356566    0.572472   -0.019574   -0.159242   -0.075695    0.001870
C     1.179217   -0.796685    0.088575   -0.008971    0.017028   -0.001660
N     0.008210   -1.454494    0.110838    0.000978    0.000188    0.000004
C    -1.131376   -0.714764    0.018532    0.000676    0.000599   -0.000030
N    -0.995238    0.677642   -0.092617    0.000751    0.000379   -0.000013
C     0.194158    1.409660   -0.120689    0.005712   -0.006457    0.000684
O    -2.273001   -1.200862    0.028059   -0.000146   -0.000084    0.000010
O     0.161758    2.645985   -0.224814   -0.000590    0.001499   -0.000145
H     2.075560   -1.430341    0.165515    0.113984   -0.092633    0.010770
H    -1.858608    1.212888   -0.161920   -0.002467    0.000170   -0.000070
H     2.345944    1.032379   -0.030255    1.804404    0.830984   -0.018739
11
* Frequency(31) 3206.9616
C     1.338469    0.563869   -0.019361   -0.159242   -0.075695    0.001870
C     1.178198   -0.794750    0.088387   -0.008971    0.017028   -0.001660
N     0.008321   -1.454473    0.110838    0.000978    0.000188    0.000004
C    -1.131299   -0.714696    0.018528    0.000676    0.000599   -0.000030
N    -0.995153    0.677686   -0.092618    0.000751    0.000379   -0.000013
C     0.194807    1.408926   -0.120611    0.005712   -0.006457    0.000684
O    -2.273018   -1.200872    0.028060   -0.000146   -0.000084    0.000010
O     0.161691    2.646156   -0.224830   -0.000590    0.001499   -0.000145
H     2.088513   -1.440868    0.166738    0.113984   -0.092633    0.010770
H    -1.858888    1.212907   -0.161928   -0.002467    0.000170   -0.000070
H     2.551006    1.126816   -0.032384    1.804404    0.830984   -0.018739
11
* Frequency(31) 3206.9616
C     1.322333    0.556199   -0.019172   -0.159242   -0.075695    0.001870
C     1.177289   -0.793024    0.088218   -0.008971    0.017028   -0.001660
N     0.008420   -1.454454    0.110839    0.000978    0.000188    0.000004
C    -1.131230   -0.714635    0.018525    0.000676    0.000599   -0.000030
N    -0.995077    0.677724   -0.092620    0.000751    0.000379   -0.000013
C     0.195386    1.408271   -0.120542    0.005712   -0.006457    0.000684
O    -2.273032   -1.200880    0.028061   -0.000146   -0.000084    0.000010
O     0.161631    2.646308   -0.224845   -0.000590    0.001499   -0.000145
H     2.100063   -1.450254    0.167830    0.113984   -0.092633    0.010770
H    -1.859139    1.212924   -0.161935   -0.002467    0.000170   -0.000070
H     2.733845    1.211020   -0.034283    1.804404    0.830984   -0.018739
11
* Frequency(31) 3206.9616
C     1.309907    0.550293   -0.019026   -0.159242   -0.075695    0.001870
C     1.176588   -0.791695    0.088089   -0.008971    0.017028   -0.001660
N     0.008497   -1.454439    0.110839    0.000978    0.000188    0.000004
C    -1.131178   -0.714589    0.018523    0.000676    0.000599   -0.000030
N    -0.995018    0.677753   -0.092621    0.000751    0.000379   -0.000013
C     0.195831    1.407768   -0.120489    0.005712   -0.006457    0.000684
O    -2.273044   -1.200887    0.028062   -0.000146   -0.000084    0.000010
O     0.161585    2.646425   -0.224856   -0.000590    0.001499   -0.000145
H     2.108958   -1.457483    0.168670    0.113984   -0.092633    0.010770
H    -1.859331    1.212937   -0.161941   -0.002467    0.000170   -0.000070
H     2.874650    1.275864   -0.035745    1.804404    0.830984   -0.018739
11
* Frequency(31) 3206.9616
C     1.302537    0.546789   -0.018939   -0.159242   -0.075695    0.001870
C     1.176173   -0.790907    0.088012   -0.008971    0.017028   -0.001660
N     0.008542   -1.454430    0.110839    0.000978    0.000188    0.000004
C    -1.131146   -0.714561    0.018522    0.000676    0.000599   -0.000030
N    -0.994984    0.677771   -0.092621    0.000751    0.000379   -0.000013
C     0.196096    1.407469   -0.120457    0.005712   -0.006457    0.000684
O    -2.273050   -1.200891    0.028062   -0.000146   -0.000084    0.000010
O     0.161558    2.646494   -0.224863   -0.000590    0.001499   -0.000145
H     2.114233   -1.461770    0.169169    0.113984   -0.092633    0.010770
H    -1.859445    1.212945   -0.161944   -0.002467    0.000170   -0.000070
H     2.958161    1.314324   -0.036613    1.804404    0.830984   -0.018739
11
* Frequency(31) 3206.9616
C     1.301022    0.546069   -0.018921   -0.159242   -0.075695    0.001870
C     1.176088   -0.790745    0.087996   -0.008971    0.017028   -0.001660
N     0.008551   -1.454429    0.110839    0.000978    0.000188    0.000004
C    -1.131140   -0.714555    0.018521    0.000676    0.000599   -0.000030
N    -0.994976    0.677775   -0.092621    0.000751    0.000379   -0.000013
C     0.196150    1.407407   -0.120450    0.005712   -0.006457    0.000684
O    -2.273052   -1.200892    0.028062   -0.000146   -0.000084    0.000010
O     0.161552    2.646508   -0.224864   -0.000590    0.001499   -0.000145
H     2.115318   -1.462652    0.169271    0.113984   -0.092633    0.010770
H    -1.859469    1.212947   -0.161945   -0.002467    0.000170   -0.000070
H     2.975329    1.322230   -0.036791    1.804404    0.830984   -0.018739
11
* Frequency(31) 3206.9616
C     1.305526    0.548210   -0.018974   -0.159242   -0.075695    0.001870
C     1.176342   -0.791227    0.088043   -0.008971    0.017028   -0.001660
N     0.008523   -1.454434    0.110839    0.000978    0.000188    0.000004
C    -1.131159   -0.714572    0.018522    0.000676    0.000599   -0.000030
N    -0.994998    0.677764   -0.092621    0.000751    0.000379   -0.000013
C     0.195988    1.407590   -0.120470    0.005712   -0.006457    0.000684
O    -2.273048   -1.200889    0.028062   -0.000146   -0.000084    0.000010
O     0.161569    2.646466   -0.224860   -0.000590    0.001499   -0.000145
H     2.112094   -1.460032    0.168967    0.113984   -0.092633    0.010770
H    -1.859399    1.212942   -0.161943   -0.002467    0.000170   -0.000070
H     2.924293    1.298727   -0.036261    1.804404    0.830984   -0.018739
11
* Frequency(31) 3206.9616
C     1.315561    0.552980   -0.019092   -0.159242   -0.075695    0.001870
C     1.176907   -0.792300    0.088148   -0.008971    0.017028   -0.001660
N     0.008462   -1.454446    0.110839    0.000978    0.000188    0.000004
C    -1.131202   -0.714610    0.018524    0.000676    0.000599   -0.000030
N    -0.995045    0.677740   -0.092620    0.000751    0.000379   -0.000013
C     0.195628    1.407997   -0.120513    0.005712   -0.006457    0.000684
O    -2.273039   -1.200884    0.028061   -0.000146   -0.000084    0.000010
O     0.161606    2.646371   -0.224851   -0.000590    0.001499   -0.000145
H     2.104911   -1.454194    0.168288    0.113984   -0.092633    0.010770
H    -1.859243    1.212931   -0.161938   -0.002467    0.000170   -0.000070
H     2.810585    1.246360   -0.035080    1.804404    0.830984   -0.018739
11
* Frequency(31) 3206.9616
C     1.330040    0.559862   -0.019262   -0.159242   -0.075695    0.001870
C     1.177723   -0.793848    0.088299   -0.008971    0.017028   -0.001660
N     0.008373   -1.454463    0.110839    0.000978    0.000188    0.000004
C    -1.131263   -0.714664    0.018527    0.000676    0.000599   -0.000030
N    -0.995113    0.677706   -0.092619    0.000751    0.000379   -0.000013
C     0.195109    1.408584   -0.120575    0.005712   -0.006457    0.000684
O    -2.273025   -1.200876    0.028060   -0.000146   -0.000084    0.000010
O     0.161660    2.646235   -0.224838   -0.000590    0.001499   -0.000145
H     2.094547   -1.445772    0.167309    0.113984   -0.092633    0.010770
H    -1.859019    1.212916   -0.161932   -0.002467    0.000170   -0.000070
H     2.646525    1.170806   -0.033376    1.804404    0.830984   -0.018739
11
* Frequency(31) 3206.9616
C     1.347393    0.568111   -0.019466   -0.159242   -0.075695    0.001870
C     1.178700   -0.795704    0.088480   -0.008971    0.017028   -0.001660
N     0.008266   -1.454483    0.110838    0.000978    0.000188    0.000004
C    -1.131337   -0.714730    0.018530    0.000676    0.000599   -0.000030
N    -0.995195    0.677664   -0.092618    0.000751    0.000379   -0.000013
C     0.194487    1.409288   -0.120649    0.005712   -0.006457    0.000684
O    -2.273009   -1.200867    0.028059   -0.000146   -0.000084    0.000010
O     0.161724    2.646072   -0.224822   -0.000590    0.001499   -0.000145
H     2.082126   -1.435677    0.166135    0.113984   -0.092633    0.010770
H    -1.858750    1.212897   -0.161924   -0.002467    0.000170   -0.000070
H     2.449893    1.080251   -0.031334    1.804404    0.830984   -0.018739
11
* Frequency(31) 3206.9616
C     1.365740    0.576832   -0.019681   -0.159242   -0.075695    0.001870
C     1.179734   -0.797666    0.088671   -0.008971    0.017028   -0.001660
N     0.008154   -1.454505    0.110838    0.000978    0.000188    0.000004
C    -1.131415   -0.714799    0.018533    0.000676    0.000599   -0.000030
N    -0.995282    0.677621   -0.092616    0.000751    0.000379   -0.000013
C     0.193829    1.410032   -0.120728    0.005712   -0.006457    0.000684
O    -2.272993   -1.200858    0.028058   -0.000146   -0.000084    0.000010
O     0.161792    2.645899   -0.224806   -0.000590    0.001499   -0.000145
H     2.068993   -1.425004    0.164894    0.113984   -0.092633    0.010770
H    -1.858466    1.212878   -0.161916   -0.002467    0.000170   -0.000070
H     2.241996    0.984508   -0.029175    1.804404    0.830984   -0.018739
11
* Frequency(31) 3206.9616
C     1.383093    0.585081   -0.019885   -0.159242   -0.075695    0.001870
C     1.180712   -0.799521    0.088852   -0.008971    0.017028   -0.001660
N     0.008047   -1.454525    0.110837    0.000978    0.000188    0.000004
C    -1.131488   -0.714864    0.018537    0.000676    0.000599   -0.000030
N    -0.995363    0.677579   -0.092615    0.000751    0.000379   -0.000013
C     0.193206    1.410735   -0.120803    0.005712   -0.006457    0.000684
O    -2.272977   -1.200849    0.028057   -0.000146   -0.000084    0.000010
O     0.161856    2.645736   -0.224790   -0.000590    0.001499   -0.000145
H     2.056572   -1.414910    0.163720    0.113984   -0.092633    0.010770
H    -1.858197    1.212859   -0.161909   -0.002467    0.000170   -0.000070
H     2.045364    0.893953   -0.027133    1.804404    0.830984   -0.018739
11
* Frequency(31) 3206.9616
C     1.397572    0.591963   -0.020055   -0.159242   -0.075695    0.001870
C     1.181527   -0.801069    0.089003   -0.008971    0.017028   -0.001660
N     0.007958   -1.454543    0.110837    0.000978    0.000188    0.000004
C    -1.131550   -0.714918    0.018539    0.000676    0.000599   -0.000030
N    -0.995432    0.677545   -0.092614    0.000751    0.000379   -0.000013
C     0.192687    1.411322   -0.120865    0.005712   -0.006457    0.000684
O    -2.272963   -1.200841    0.028056   -0.000146   -0.000084    0.000010
O     0.161910    2.645600   -0.224777   -0.000590    0.001499   -0.000145
H     2.046208   -1.406487    0.162741    0.113984   -0.092633    0.010770
H    -1.857973    1.212844   -0.161902   -0.002467    0.000170   -0.000070
H     1.881304    0.818398   -0.025429    1.804404    0.830984   -0.018739
11
* Frequency(31) 3206.9616
C     1.407607    0.596733   -0.020173   -0.159242   -0.075695    0.001870
C     1.182093   -0.802142    0.089107   -0.008971    0.017028   -0.001660
N     0.007897   -1.454554    0.110837    0.000978    0.000188    0.000004
C    -1.131592   -0.714956    0.018541    0.000676    0.000599   -0.000030
N    -0.995479    0.677521   -0.092613    0.000751    0.000379   -0.000013
C     0.192327    1.411729   -0.120908    0.005712   -0.006457    0.000684
O    -2.272954   -1.200836    0.028056   -0.000146   -0.000084    0.000010
O     0.161947    2.645505   -0.224768   -0.000590    0.001499   -0.000145
H     2.039025   -1.400650    0.162062    0.113984   -0.092633    0.010770
H    -1.857817    1.212833   -0.161898   -0.002467    0.000170   -0.000070
H     1.767595    0.766032   -0.024248    1.804404    0.830984   -0.018739
11
* Frequency(31) 3206.9616
C     1.412111    0.598874   -0.020226   -0.159242   -0.075695    0.001870
C     1.182346   -0.802624    0.089154   -0.008971    0.017028   -0.001660
N     0.007869   -1.454560    0.110837    0.000978    0.000188    0.000004
C    -1.131611   -0.714973    0.018542    0.000676    0.000599   -0.000030
N    -0.995500    0.677510   -0.092613    0.000751    0.000379   -0.000013
C     0.192165    1.411912   -0.120927    0.005712   -0.006457    0.000684
O    -2.272950   -1.200833    0.028055   -0.000146   -0.000084    0.000010
O     0.161964    2.645463   -0.224764   -0.000590    0.001499   -0.000145
H     2.035801   -1.398030    0.161758    0.113984   -0.092633    0.010770
H    -1.857747    1.212829   -0.161896   -0.002467    0.000170   -0.000070
H     1.716560    0.742528   -0.023718    1.804404    0.830984   -0.018739
11
* Frequency(31) 3206.9616
C     1.410596    0.598154   -0.020208   -0.159242   -0.075695    0.001870
C     1.182261   -0.802462    0.089138   -0.008971    0.017028   -0.001660
N     0.007878   -1.454558    0.110837    0.000978    0.000188    0.000004
C    -1.131605   -0.714968    0.018542    0.000676    0.000599   -0.000030
N    -0.995493    0.677514   -0.092613    0.000751    0.000379   -0.000013
C     0.192220    1.411850   -0.120921    0.005712   -0.006457    0.000684
O    -2.272952   -1.200834    0.028055   -0.000146   -0.000084    0.000010
O     0.161958    2.645477   -0.224765   -0.000590    0.001499   -0.000145
H     2.036886   -1.398911    0.161860    0.113984   -0.092633    0.010770
H    -1.857771    1.212830   -0.161896   -0.002467    0.000170   -0.000070
H     1.733728    0.750435   -0.023897    1.804404    0.830984   -0.018739
11
* Frequency(31) 3206.9616
C     1.403226    0.594651   -0.020122   -0.159242   -0.075695    0.001870
C     1.181846   -0.801674    0.089062   -0.008971    0.017028   -0.001660
N     0.007923   -1.454549    0.110837    0.000978    0.000188    0.000004
C    -1.131574   -0.714940    0.018540    0.000676    0.000599   -0.000030
N    -0.995458    0.677532   -0.092613    0.000751    0.000379   -0.000013
C     0.192484    1.411551   -0.120889    0.005712   -0.006457    0.000684
O    -2.272958   -1.200838    0.028056   -0.000146   -0.000084    0.000010
O     0.161931    2.645546   -0.224772   -0.000590    0.001499   -0.000145
H     2.042161   -1.403199    0.162359    0.113984   -0.092633    0.010770
H    -1.857885    1.212838   -0.161900   -0.002467    0.000170   -0.000070
H     1.817239    0.788894   -0.024764    1.804404    0.830984   -0.018739
11
* Frequency(31) 3206.9616
C     1.390799    0.588744   -0.019976   -0.159242   -0.075695    0.001870
C     1.181146   -0.800345    0.088932   -0.008971    0.017028   -0.001660
N     0.008000   -1.454535    0.110837    0.000978    0.000188    0.000004
C    -1.131521   -0.714893    0.018538    0.000676    0.000599   -0.000030
N    -0.995400    0.677561   -0.092614    0.000751    0.000379   -0.000013
C     0.192930    1.411048   -0.120836    0.005712   -0.006457    0.000684
O    -2.272970   -1.200844    0.028057   -0.000146   -0.000084    0.000010
O     0.161885    2.645663   -0.224783   -0.000590    0.001499   -0.000145
H     2.051056   -1.410427    0.163199    0.113984   -0.092633    0.010770
H    -1.858078    1.212851   -0.161905   -0.002467    0.000170   -0.000070
H     1.958043    0.853739   -0.026226    1.804404    0.830984   -0.018739
11
* Frequency(31) 3206.9616
C     1.374664    0.581074   -0.019786   -0.159242   -0.075695    0.001870
C     1.180237   -0.798620    0.088764   -0.008971    0.017028   -0.001660
N     0.008099   -1.454516    0.110838    0.000978    0.000188    0.000004
C    -1.131453   -0.714832    0.018535    0.000676    0.000599   -0.000030
N    -0.995324    0.677599   -0.092616    0.000751    0.000379   -0.000013
C     0.193508    1.410393   -0.120767    0.005712   -0.006457    0.000684
O    -2.272984   -1.200853    0.028058   -0.000146   -0.000084    0.000010
O     0.161825    2.645815   -0.224798   -0.000590    0.001499   -0.000145
H     2.062606   -1.419813    0.164291    0.113984   -0.092633    0.010770
H    -1.858328    1.212868   -0.161912   -0.002467    0.000170   -0.000070
H     2.140883    0.937942   -0.028125    1.804404    0.830984   -0.018739
11
* Frequency(31) 3206.9616
C     1.356566    0.572472   -0.019574   -0.159242   -0.075695    0.001870
C     1.179217   -0.796685    0.088575   -0.008971    0.017028   -0.001660
N     0.008210   -1.454494    0.110838    0.000978    0.000188    0.000004
C    -1.131376   -0.714764    0.018532    0.000676    0.000599   -0.000030
N    -0.995238    0.677642   -0.092617    0.000751    0.000379   -0.000013
C     0.194158    1.409660   -0.120689    0.005712   -0.006457    0.000684
O    -2.273001   -1.200862    0.028059   -0.000146   -0.000084    0.000010
O     0.161758    2.645985   -0.224814   -0.000590    0.001499   -0.000145
H     2.075560   -1.430341    0.165515    0.113984   -0.092633    0.010770
H    -1.858608    1.212888   -0.161920   -0.002467    0.000170   -0.000070
H     2.345944    1.032379   -0.030255    1.804404    0.830984   -0.018739
