11
* (null), Energy   -1000.0000000
C     1.356566    0.572472   -0.019574    0.000000    0.000000    0.000000
C     1.179217   -0.796685    0.088575    0.000000    0.000000    0.000000
N     0.008210   -1.454494    0.110838    0.000000    0.000000    0.000000
C    -1.131376   -0.714764    0.018532    0.000000    0.000000    0.000000
N    -0.995238    0.677642   -0.092617    0.000000    0.000000    0.000000
C     0.194158    1.409660   -0.120689    0.000000    0.000000    0.000000
O    -2.273001   -1.200862    0.028059    0.000000    0.000000    0.000000
O     0.161758    2.645985   -0.224814    0.000000    0.000000    0.000000
H     2.075560   -1.430341    0.165515    0.000000    0.000000    0.000000
H    -1.858608    1.212888   -0.161920    0.000000    0.000000    0.000000
H     2.345944    1.032379   -0.030255    0.000000    0.000000    0.000000
11
* Frequency(1)    0.0000
C     1.356566    0.572472   -0.019574    0.000000    0.000000    0.000000
C     1.179217   -0.796685    0.088575    0.000000    0.000000    0.000000
N     0.008210   -1.454494    0.110838    0.000000    0.000000    0.000000
C    -1.131376   -0.714764    0.018532    0.000000    0.000000    0.000000
N    -0.995238    0.677642   -0.092617    0.000000    0.000000    0.000000
C     0.194158    1.409660   -0.120689    0.000000    0.000000    0.000000
O    -2.273001   -1.200862    0.028059    0.000000    0.000000    0.000000
O     0.161758    2.645985   -0.224814    0.000000    0.000000    0.000000
H     2.075560   -1.430341    0.165515    0.000000    0.000000    0.000000
H    -1.858608    1.212888   -0.161920    0.000000    0.000000    0.000000
H     2.345944    1.032379   -0.030255    0.000000    0.000000    0.000000
11
* Frequency(1)    0.0000
C     1.356566    0.572472   -0.019574    0.000000    0.000000    0.000000
C     1.179217   -0.796685    0.088575    0.000000    0.000000    0.000000
N     0.008210   -1.454494    0.110838    0.000000    0.000000    0.000000
C    -1.131376   -0.714764    0.018532    0.000000    0.000000    0.000000
N    -0.995238    0.677642   -0.092617    0.000000    0.000000    0.000000
C     0.194158    1.409660   -0.120689    0.000000    0.000000    0.000000
O    -2.273001   -1.200862    0.028059    0.000000    0.000000    0.000000
O     0.161758    2.645985   -0.224814    0.000000    0.000000    0.000000
H     2.075560   -1.430341    0.165515    0.000000    0.000000    0.000000
H    -1.858608    1.212888   -0.161920    0.000000    0.000000    0.000000
H     2.345944    1.032379   -0.030255    0.000000    0.000000    0.000000
11
* Frequency(1)    0.0000
C     1.356566    0.572472   -0.019574    0.000000    0.000000    0.000000
C     1.179217   -0.796685    0.088575    0.000000    0.000000    0.000000
N     0.008210   -1.454494    0.110838    0.000000    0.000000    0.000000
C    -1.131376   -0.714764    0.018532    0.000000    0.000000    0.000000
N    -0.995238    0.677642   -0.092617    0.000000    0.000000    0.000000
C     0.194158    1.409660   -0.120689    0.000000    0.000000    0.000000
O    -2.273001   -1.200862    0.028059    0.000000    0.000000    0.000000
O     0.161758    2.645985   -0.224814    0.000000    0.000000    0.000000
H     2.075560   -1.430341    0.165515    0.000000    0.000000    0.000000
H    -1.858608    1.212888   -0.161920    0.000000    0.000000    0.000000
H     2.345944    1.032379   -0.030255    0.000000    0.000000    0.000000
11
* Frequency(1)    0.0000
C     1.356566    0.572472   -0.019574    0.000000    0.000000    0.000000
C     1.179217   -0.796685    0.088575    0.000000    0.000000    0.000000
N     0.008210   -1.454494    0.110838    0.000000    0.000000    0.000000
C    -1.131376   -0.714764    0.018532    0.000000    0.000000    0.000000
N    -0.995238    0.677642   -0.092617    0.000000    0.000000    0.000000
C     0.194158    1.409660   -0.120689    0.000000    0.000000    0.000000
O    -2.273001   -1.200862    0.028059    0.000000    0.000000    0.000000
O     0.161758    2.645985   -0.224814    0.000000    0.000000    0.000000
H     2.075560   -1.430341    0.165515    0.000000    0.000000    0.000000
H    -1.858608    1.212888   -0.161920    0.000000    0.000000    0.000000
H     2.345944    1.032379   -0.030255    0.000000    0.000000    0.000000
11
* Frequency(1)    0.0000
C     1.356566    0.572472   -0.019574    0.000000    0.000000    0.000000
C     1.179217   -0.796685    0.088575    0.000000    0.000000    0.000000
N     0.008210   -1.454494    0.110838    0.000000    0.000000    0.000000
C    -1.131376   -0.714764    0.018532    0.000000    0.000000    0.000000
N    -0.995238    0.677642   -0.092617    0.000000    0.000000    0.000000
C     0.194158    1.409660   -0.120689    0.000000    0.000000    0.000000
O    -2.273001   -1.200862    0.028059    0.000000    0.000000    0.000000
O     0.161758    2.645985   -0.224814    0.000000    0.000000    0.000000
H     2.075560   -1.430341    0.165515    0.000000    0.000000    0.000000
H    -1.858608    1.212888   -0.161920    0.000000    0.000000    0.000000
H     2.345944    1.032379   -0.030255    0.000000    0.000000    0.000000
11
* Frequency(1)    0.0000
C     1.356566    0.572472   -0.019574    0.000000    0.000000    0.000000
C     1.179217   -0.796685    0.088575    0.000000    0.000000    0.000000
N     0.008210   -1.454494    0.110838    0.000000    0.000000    0.000000
C    -1.131376   -0.714764    0.018532    0.000000    0.000000    0.000000
N    -0.995238    0.677642   -0.092617    0.000000    0.000000    0.000000
C     0.194158    1.409660   -0.120689    0.000000    0.000000    0.000000
O    -2.273001   -1.200862    0.028059    0.000000    0.000000    0.000000
O     0.161758    2.645985   -0.224814    0.000000    0.000000    0.000000
H     2.075560   -1.430341    0.165515    0.000000    0.000000    0.000000
H    -1.858608    1.212888   -0.161920    0.000000    0.000000    0.000000
H     2.345944    1.032379   -0.030255    0.000000    0.000000    0.000000
11
* Frequency(1)    0.0000
C     1.356566    0.572472   -0.019574    0.000000    0.000000    0.000000
C     1.179217   -0.796685    0.088575    0.000000    0.000000    0.000000
N     0.008210   -1.454494    0.110838    0.000000    0.000000    0.000000
C    -1.131376   -0.714764    0.018532    0.000000    0.000000    0.000000
N    -0.995238    0.677642   -0.092617    0.000000    0.000000    0.000000
C     0.194158    1.409660   -0.120689    0.000000    0.000000    0.000000
O    -2.273001   -1.200862    0.028059    0.000000    0.000000    0.000000
O     0.161758    2.645985   -0.224814    0.000000    0.000000    0.000000
H     2.075560   -1.430341    0.165515    0.000000    0.000000    0.000000
H    -1.858608    1.212888   -0.161920    0.000000    0.000000    0.000000
H     2.345944    1.032379   -0.030255    0.000000    0.000000    0.000000
11
* Frequency(1)    0.0000
C     1.356566    0.572472   -0.019574    0.000000    0.000000    0.000000
C     1.179217   -0.796685    0.088575    0.000000    0.000000    0.000000
N     0.008210   -1.454494    0.110838    0.000000    0.000000    0.000000
C    -1.131376   -0.714764    0.018532    0.000000    0.000000    0.000000
N    -0.995238    0.677642   -0.092617    0.000000    0.000000    0.000000
C     0.194158    1.409660   -0.120689    0.000000    0.000000    0.000000
O    -2.273001   -1.200862    0.028059    0.000000    0.000000    0.000000
O     0.161758    2.645985   -0.224814    0.000000    0.000000    0.000000
H     2.075560   -1.430341    0.165515    0.000000    0.000000    0.000000
H    -1.858608    1.212888   -0.161920    0.000000    0.000000    0.000000
H     2.345944    1.032379   -0.030255    0.000000    0.000000    0.000000
11
* Frequency(1)    0.0000
C     1.356566    0.572472   -0.019574    0.000000    0.000000    0.000000
C     1.179217   -0.796685    0.088575    0.000000    0.000000    0.000000
N     0.008210   -1.454494    0.110838    0.000000    0.000000    0.000000
C    -1.131376   -0.714764    0.018532    0.000000    0.000000    0.000000
N    -0.995238    0.677642   -0.092617    0.000000    0.000000    0.000000
C     0.194158    1.409660   -0.120689    0.000000    0.000000    0.000000
O    -2.273001   -1.200862    0.028059    0.000000    0.000000    0.000000
O     0.161758    2.645985   -0.224814    0.000000    0.000000    0.000000
H     2.075560   -1.430341    0.165515    0.000000    0.000000    0.000000
H    -1.858608    1.212888   -0.161920    0.000000    0.000000    0.000000
H     2.345944    1.032379   -0.030255    0.000000    0.000000    0.000000
11
* Frequency(1)    0.0000
C     1.356566    0.572472   -0.019574    0.000000    0.000000    0.000000
C     1.179217   -0.796685    0.088575    0.000000    0.000000    0.000000
N     0.008210   -1.454494    0.110838    0.000000    0.000000    0.000000
C    -1.131376   -0.714764    0.018532    0.000000    0.000000    0.000000
N    -0.995238    0.677642   -0.092617    0.000000    0.000000    0.000000
C     0.194158    1.409660   -0.120689    0.000000    0.000000    0.000000
O    -2.273001   -1.200862    0.028059    0.000000    0.000000    0.000000
O     0.161758    2.645985   -0.224814    0.000000    0.000000    0.000000
H     2.075560   -1.430341    0.165515    0.000000    0.000000    0.000000
H    -1.858608    1.212888   -0.161920    0.000000    0.000000    0.000000
H     2.345944    1.032379   -0.030255    0.000000    0.000000    0.000000
11
* Frequency(1)    0.0000
C     1.356566    0.572472   -0.019574    0.000000    0.000000    0.000000
C     1.179217   -0.796685    0.088575    0.000000    0.000000    0.000000
N     0.008210   -1.454494    0.110838    0.000000    0.000000    0.000000
C    -1.131376   -0.714764    0.018532    0.000000    0.000000    0.000000
N    -0.995238    0.677642   -0.092617    0.000000    0.000000    0.000000
C     0.194158    1.409660   -0.120689    0.000000    0.000000    0.000000
O    -2.273001   -1.200862    0.028059    0.000000    0.000000    0.000000
O     0.161758    2.645985   -0.224814    0.000000    0.000000    0.000000
H     2.075560   -1.430341    0.165515    0.000000    0.000000    0.000000
H    -1.858608    1.212888   -0.161920    0.000000    0.000000    0.000000
H     2.345944    1.032379   -0.030255    0.000000    0.000000    0.000000
11
* Frequency(1)    0.0000
C     1.356566    0.572472   -0.019574    0.000000    0.000000    0.000000
C     1.179217   -0.796685    0.088575    0.000000    0.000000    0.000000
N     0.008210   -1.454494    0.110838    0.000000    0.000000    0.000000
C    -1.131376   -0.714764    0.018532    0.000000    0.000000    0.000000
N    -0.995238    0.677642   -0.092617    0.000000    0.000000    0.000000
C     0.194158    1.409660   -0.120689    0.000000    0.000000    0.000000
O    -2.273001   -1.200862    0.028059    0.000000    0.000000    0.000000
O     0.161758    2.645985   -0.224814    0.000000    0.000000    0.000000
H     2.075560   -1.430341    0.165515    0.000000    0.000000    0.000000
H    -1.858608    1.212888   -0.161920    0.000000    0.000000    0.000000
H     2.345944    1.032379   -0.030255    0.000000    0.000000    0.000000
11
* Frequency(1)    0.0000
C     1.356566    0.572472   -0.019574    0.000000    0.000000    0.000000
C     1.179217   -0.796685    0.088575    0.000000    0.000000    0.000000
N     0.008210   -1.454494    0.110838    0.000000    0.000000    0.000000
C    -1.131376   -0.714764    0.018532    0.000000    0.000000    0.000000
N    -0.995238    0.677642   -0.092617    0.000000    0.000000    0.000000
C     0.194158    1.409660   -0.120689    0.000000    0.000000    0.000000
O    -2.273001   -1.200862    0.028059    0.000000    0.000000    0.000000
O     0.161758    2.645985   -0.224814    0.000000    0.000000    0.000000
H     2.075560   -1.430341    0.165515    0.000000    0.000000    0.000000
H    -1.858608    1.212888   -0.161920    0.000000    0.000000    0.000000
H     2.345944    1.032379   -0.030255    0.000000    0.000000    0.000000
11
* Frequency(1)    0.0000
C     1.356566    0.572472   -0.019574    0.000000    0.000000    0.000000
C     1.179217   -0.796685    0.088575    0.000000    0.000000    0.000000
N     0.008210   -1.454494    0.110838    0.000000    0.000000    0.000000
C    -1.131376   -0.714764    0.018532    0.000000    0.000000    0.000000
N    -0.995238    0.677642   -0.092617    0.000000    0.000000    0.000000
C     0.194158    1.409660   -0.120689    0.000000    0.000000    0.000000
O    -2.273001   -1.200862    0.028059    0.000000    0.000000    0.000000
O     0.161758    2.645985   -0.224814    0.000000    0.000000    0.000000
H     2.075560   -1.430341    0.165515    0.000000    0.000000    0.000000
H    -1.858608    1.212888   -0.161920    0.000000    0.000000    0.000000
H     2.345944    1.032379   -0.030255    0.000000    0.000000    0.000000
11
* Frequency(1)    0.0000
C     1.356566    0.572472   -0.019574    0.000000    0.000000    0.000000
C     1.179217   -0.796685    0.088575    0.000000    0.000000    0.000000
N     0.008210   -1.454494    0.110838    0.000000    0.000000    0.000000
C    -1.131376   -0.714764    0.018532    0.000000    0.000000    0.000000
N    -0.995238    0.677642   -0.092617    0.000000    0.000000    0.000000
C     0.194158    1.409660   -0.120689    0.000000    0.000000    0.000000
O    -2.273001   -1.200862    0.028059    0.000000    0.000000    0.000000
O     0.161758    2.645985   -0.224814    0.000000    0.000000    0.000000
H     2.075560   -1.430341    0.165515    0.000000    0.000000    0.000000
H    -1.858608    1.212888   -0.161920    0.000000    0.000000    0.000000
H     2.345944    1.032379   -0.030255    0.000000    0.000000    0.000000
11
* Frequency(1)    0.0000
C     1.356566    0.572472   -0.019574    0.000000    0.000000    0.000000
C     1.179217   -0.796685    0.088575    0.000000    0.000000    0.000000
N     0.008210   -1.454494    0.110838    0.000000    0.000000    0.000000
C    -1.131376   -0.714764    0.018532    0.000000    0.000000    0.000000
N    -0.995238    0.677642   -0.092617    0.000000    0.000000    0.000000
C     0.194158    1.409660   -0.120689    0.000000    0.000000    0.000000
O    -2.273001   -1.200862    0.028059    0.000000    0.000000    0.000000
O     0.161758    2.645985   -0.224814    0.000000    0.000000    0.000000
H     2.075560   -1.430341    0.165515    0.000000    0.000000    0.000000
H    -1.858608    1.212888   -0.161920    0.000000    0.000000    0.000000
H     2.345944    1.032379   -0.030255    0.000000    0.000000    0.000000
11
* Frequency(1)    0.0000
C     1.356566    0.572472   -0.019574    0.000000    0.000000    0.000000
C     1.179217   -0.796685    0.088575    0.000000    0.000000    0.000000
N     0.008210   -1.454494    0.110838    0.000000    0.000000    0.000000
C    -1.131376   -0.714764    0.018532    0.000000    0.000000    0.000000
N    -0.995238    0.677642   -0.092617    0.000000    0.000000    0.000000
C     0.194158    1.409660   -0.120689    0.000000    0.000000    0.000000
O    -2.273001   -1.200862    0.028059    0.000000    0.000000    0.000000
O     0.161758    2.645985   -0.224814    0.000000    0.000000    0.000000
H     2.075560   -1.430341    0.165515    0.000000    0.000000    0.000000
H    -1.858608    1.212888   -0.161920    0.000000    0.000000    0.000000
H     2.345944    1.032379   -0.030255    0.000000    0.000000    0.000000
11
* Frequency(1)    0.0000
C     1.356566    0.572472   -0.019574    0.000000    0.000000    0.000000
C     1.179217   -0.796685    0.088575    0.000000    0.000000    0.000000
N     0.008210   -1.454494    0.110838    0.000000    0.000000    0.000000
C    -1.131376   -0.714764    0.018532    0.000000    0.000000    0.000000
N    -0.995238    0.677642   -0.092617    0.000000    0.000000    0.000000
C     0.194158    1.409660   -0.120689    0.000000    0.000000    0.000000
O    -2.273001   -1.200862    0.028059    0.000000    0.000000    0.000000
O     0.161758    2.645985   -0.224814    0.000000    0.000000    0.000000
H     2.075560   -1.430341    0.165515    0.000000    0.000000    0.000000
H    -1.858608    1.212888   -0.161920    0.000000    0.000000    0.000000
H     2.345944    1.032379   -0.030255    0.000000    0.000000    0.000000
11
* Frequency(1)    0.0000
C     1.356566    0.572472   -0.019574    0.000000    0.000000    0.000000
C     1.179217   -0.796685    0.088575    0.000000    0.000000    0.000000
N     0.008210   -1.454494    0.110838    0.000000    0.000000    0.000000
C    -1.131376   -0.714764    0.018532    0.000000    0.000000    0.000000
N    -0.995238    0.677642   -0.092617    0.000000    0.000000    0.000000
C     0.194158    1.409660   -0.120689    0.000000    0.000000    0.000000
O    -2.273001   -1.200862    0.028059    0.000000    0.000000    0.000000
O     0.161758    2.645985   -0.224814    0.000000    0.000000    0.000000
H     2.075560   -1.430341    0.165515    0.000000    0.000000    0.000000
H    -1.858608    1.212888   -0.161920    0.000000    0.000000    0.000000
H     2.345944    1.032379   -0.030255    0.000000    0.000000    0.000000
