11
* (null), Energy   -1000.0000000
C     1.589770    0.404289    0.010476    0.159192    0.075466   -0.001799
C     1.411370   -0.965186    0.118323    0.008550   -0.016565    0.001598
N     0.241399   -1.624530    0.140582   -0.001016   -0.000181   -0.000012
C    -0.900298   -0.884733    0.048827   -0.000631   -0.000616    0.000034
N    -0.762264    0.508959   -0.063346   -0.000739   -0.000393    0.000013
C     0.427306    1.242907   -0.091179   -0.005609    0.006459   -0.000688
O    -2.041444   -1.368814    0.058335    0.000140    0.000087   -0.000004
O     0.393949    2.478247   -0.194845    0.000579   -0.001493    0.000139
H     2.308617   -1.598423    0.195226   -0.108255    0.088516   -0.010278
H    -1.625843    1.043584   -0.132009    0.002450   -0.000099    0.000066
H     2.579572    0.863274    0.000136   -1.805635   -0.829586    0.018235
11
* Frequency(31) 3206.6182
C     1.607861    0.412865    0.010271    0.159192    0.075466   -0.001799
C     1.412342   -0.967069    0.118505    0.008550   -0.016565    0.001598
N     0.241284   -1.624550    0.140581   -0.001016   -0.000181   -0.000012
C    -0.900370   -0.884804    0.048831   -0.000631   -0.000616    0.000034
N    -0.762348    0.508914   -0.063345   -0.000739   -0.000393    0.000013
C     0.426668    1.243641   -0.091257   -0.005609    0.006459   -0.000688
O    -2.041428   -1.368804    0.058335    0.000140    0.000087   -0.000004
O     0.394014    2.478077   -0.194829    0.000579   -0.001493    0.000139
H     2.296315   -1.588363    0.194058   -0.108255    0.088516   -0.010278
H    -1.625565    1.043573   -0.132002    0.002450   -0.000099    0.000066
H     2.374371    0.768996    0.002209   -1.805635   -0.829586    0.018235
11
* Frequency(31) 3206.6182
C     1.623992    0.420512    0.010089    0.159192    0.075466   -0.001799
C     1.413208   -0.968747    0.118666    0.008550   -0.016565    0.001598
N     0.241181   -1.624569    0.140580   -0.001016   -0.000181   -0.000012
C    -0.900434   -0.884866    0.048834   -0.000631   -0.000616    0.000034
N    -0.762423    0.508874   -0.063343   -0.000739   -0.000393    0.000013
C     0.426100    1.244295   -0.091327   -0.005609    0.006459   -0.000688
O    -2.041413   -1.368795    0.058334    0.000140    0.000087   -0.000004
O     0.394073    2.477926   -0.194815    0.000579   -0.001493    0.000139
H     2.285345   -1.579394    0.193016   -0.108255    0.088516   -0.010278
H    -1.625316    1.043563   -0.131995    0.002450   -0.000099    0.000066
H     2.191407    0.684934    0.004056   -1.805635   -0.829586    0.018235
11
* Frequency(31) 3206.6182
C     1.636415    0.426401    0.009949    0.159192    0.075466   -0.001799
C     1.413875   -0.970040    0.118791    0.008550   -0.016565    0.001598
N     0.241101   -1.624583    0.140579   -0.001016   -0.000181   -0.000012
C    -0.900483   -0.884914    0.048837   -0.000631   -0.000616    0.000034
N    -0.762481    0.508844   -0.063342   -0.000739   -0.000393    0.000013
C     0.425662    1.244799   -0.091380   -0.005609    0.006459   -0.000688
O    -2.041403   -1.368788    0.058334    0.000140    0.000087   -0.000004
O     0.394118    2.477809   -0.194804    0.000579   -0.001493    0.000139
H     2.276898   -1.572487    0.192214   -0.108255    0.088516   -0.010278
H    -1.625125    1.043555   -0.131990    0.002450   -0.000099    0.000066
H     2.050506    0.620199    0.005479   -1.805635   -0.829586    0.018235
11
* Frequency(31) 3206.6182
C     1.643782    0.429894    0.009865    0.159192    0.075466   -0.001799
C     1.414271   -0.970807    0.118865    0.008550   -0.016565    0.001598
N     0.241054   -1.624591    0.140578   -0.001016   -0.000181   -0.000012
C    -0.900512   -0.884943    0.048838   -0.000631   -0.000616    0.000034
N    -0.762515    0.508826   -0.063342   -0.000739   -0.000393    0.000013
C     0.425403    1.245098   -0.091412   -0.005609    0.006459   -0.000688
O    -2.041396   -1.368784    0.058334    0.000140    0.000087   -0.000004
O     0.394145    2.477740   -0.194798    0.000579   -0.001493    0.000139
H     2.271887   -1.568390    0.191739   -0.108255    0.088516   -0.010278
H    -1.625012    1.043551   -0.131987    0.002450   -0.000099    0.000066
H     1.966938    0.581804    0.006323   -1.805635   -0.829586    0.018235
11
* Frequency(31) 3206.6182
C     1.645297    0.430612    0.009848    0.159192    0.075466   -0.001799
C     1.414352   -0.970964    0.118880    0.008550   -0.016565    0.001598
N     0.241045   -1.624593    0.140578   -0.001016   -0.000181   -0.000012
C    -0.900518   -0.884948    0.048839   -0.000631   -0.000616    0.000034
N    -0.762522    0.508822   -0.063341   -0.000739   -0.000393    0.000013
C     0.425349    1.245160   -0.091419   -0.005609    0.006459   -0.000688
O    -2.041395   -1.368784    0.058334    0.000140    0.000087   -0.000004
O     0.394151    2.477726   -0.194796    0.000579   -0.001493    0.000139
H     2.270857   -1.567548    0.191641   -0.108255    0.088516   -0.010278
H    -1.624989    1.043550   -0.131987    0.002450   -0.000099    0.000066
H     1.949759    0.573911    0.006497   -1.805635   -0.829586    0.018235
11
* Frequency(31) 3206.6182
C     1.640794    0.428477    0.009899    0.159192    0.075466   -0.001799
C     1.414111   -0.970496    0.118835    0.008550   -0.016565    0.001598
N     0.241073   -1.624588    0.140578   -0.001016   -0.000181   -0.000012
C    -0.900500   -0.884931    0.048838   -0.000631   -0.000616    0.000034
N    -0.762501    0.508833   -0.063342   -0.000739   -0.000393    0.000013
C     0.425508    1.244977   -0.091399   -0.005609    0.006459   -0.000688
O    -2.041399   -1.368786    0.058334    0.000140    0.000087   -0.000004
O     0.394134    2.477768   -0.194800    0.000579   -0.001493    0.000139
H     2.273919   -1.570051    0.191931   -0.108255    0.088516   -0.010278
H    -1.625058    1.043553   -0.131988    0.002450   -0.000099    0.000066
H     2.000829    0.597375    0.005981   -1.805635   -0.829586    0.018235
11
* Frequency(31) 3206.6182
C     1.630763    0.423722    0.010013    0.159192    0.075466   -0.001799
C     1.413572   -0.969452    0.118734    0.008550   -0.016565    0.001598
N     0.241137   -1.624576    0.140579   -0.001016   -0.000181   -0.000012
C    -0.900460   -0.884892    0.048836   -0.000631   -0.000616    0.000034
N    -0.762455    0.508858   -0.063343   -0.000739   -0.000393    0.000013
C     0.425861    1.244570   -0.091356   -0.005609    0.006459   -0.000688
O    -2.041408   -1.368792    0.058334    0.000140    0.000087   -0.000004
O     0.394098    2.477862   -0.194809    0.000579   -0.001493    0.000139
H     2.280741   -1.575629    0.192579   -0.108255    0.088516   -0.010278
H    -1.625212    1.043559   -0.131993    0.002450   -0.000099    0.000066
H     2.114615    0.649653    0.004832   -1.805635   -0.829586    0.018235
11
* Frequency(31) 3206.6182
C     1.616289    0.416860    0.010176    0.159192    0.075466   -0.001799
C     1.412795   -0.967946    0.118589    0.008550   -0.016565    0.001598
N     0.241230   -1.624560    0.140580   -0.001016   -0.000181   -0.000012
C    -0.900403   -0.884836    0.048833   -0.000631   -0.000616    0.000034
N    -0.762387    0.508893   -0.063344   -0.000739   -0.000393    0.000013
C     0.426371    1.243983   -0.091293   -0.005609    0.006459   -0.000688
O    -2.041420   -1.368799    0.058334    0.000140    0.000087   -0.000004
O     0.394045    2.477998   -0.194822    0.000579   -0.001493    0.000139
H     2.290584   -1.583677    0.193514   -0.108255    0.088516   -0.010278
H    -1.625435    1.043568   -0.131999    0.002450   -0.000099    0.000066
H     2.278787    0.725080    0.003174   -1.805635   -0.829586    0.018235
11
* Frequency(31) 3206.6182
C     1.598941    0.408636    0.010372    0.159192    0.075466   -0.001799
C     1.411863   -0.966141    0.118415    0.008550   -0.016565    0.001598
N     0.241340   -1.624540    0.140582   -0.001016   -0.000181   -0.000012
C    -0.900334   -0.884769    0.048829   -0.000631   -0.000616    0.000034
N    -0.762307    0.508936   -0.063345   -0.000739   -0.000393    0.000013
C     0.426983    1.243279   -0.091218   -0.005609    0.006459   -0.000688
O    -2.041436   -1.368809    0.058335    0.000140    0.000087   -0.000004
O     0.393982    2.478161   -0.194837    0.000579   -0.001493    0.000139
H     2.302381   -1.593323    0.194634   -0.108255    0.088516   -0.010278
H    -1.625702    1.043579   -0.132006    0.002450   -0.000099    0.000066
H     2.475553    0.815483    0.001187   -1.805635   -0.829586    0.018235
11
* Frequency(31) 3206.6182
C     1.580599    0.399941    0.010579    0.159192    0.075466   -0.001799
C     1.410878   -0.964232    0.118231    0.008550   -0.016565    0.001598
N     0.241457   -1.624519    0.140583   -0.001016   -0.000181   -0.000012
C    -0.900262   -0.884698    0.048825   -0.000631   -0.000616    0.000034
N    -0.762222    0.508981   -0.063347   -0.000739   -0.000393    0.000013
C     0.427629    1.242535   -0.091139   -0.005609    0.006459   -0.000688
O    -2.041452   -1.368819    0.058335    0.000140    0.000087   -0.000004
O     0.393915    2.478333   -0.194853    0.000579   -0.001493    0.000139
H     2.314854   -1.603522    0.195818   -0.108255    0.088516   -0.010278
H    -1.625984    1.043590   -0.132013    0.002450   -0.000099    0.000066
H     2.683592    0.911065   -0.000914   -1.805635   -0.829586    0.018235
11
* Frequency(31) 3206.6182
C     1.563252    0.391717    0.010776    0.159192    0.075466   -0.001799
C     1.409946   -0.962427    0.118057    0.008550   -0.016565    0.001598
N     0.241568   -1.624500    0.140584   -0.001016   -0.000181   -0.000012
C    -0.900193   -0.884631    0.048821   -0.000631   -0.000616    0.000034
N    -0.762141    0.509024   -0.063348   -0.000739   -0.000393    0.000013
C     0.428240    1.241831   -0.091064   -0.005609    0.006459   -0.000688
O    -2.041467   -1.368828    0.058336    0.000140    0.000087   -0.000004
O     0.393852    2.478495   -0.194868    0.000579   -0.001493    0.000139
H     2.326651   -1.613168    0.196938   -0.108255    0.088516   -0.010278
H    -1.626251    1.043601   -0.132020    0.002450   -0.000099    0.000066
H     2.880358    1.001468   -0.002901   -1.805635   -0.829586    0.018235
11
* Frequency(31) 3206.6182
C     1.548778    0.384856    0.010939    0.159192    0.075466   -0.001799
C     1.409169   -0.960921    0.117911    0.008550   -0.016565    0.001598
N     0.241660   -1.624483    0.140585   -0.001016   -0.000181   -0.000012
C    -0.900135   -0.884575    0.048818   -0.000631   -0.000616    0.000034
N    -0.762074    0.509060   -0.063350   -0.000739   -0.000393    0.000013
C     0.428750    1.241244   -0.091002   -0.005609    0.006459   -0.000688
O    -2.041480   -1.368836    0.058336    0.000140    0.000087   -0.000004
O     0.393799    2.478631   -0.194881    0.000579   -0.001493    0.000139
H     2.336493   -1.621216    0.197872   -0.108255    0.088516   -0.010278
H    -1.626474    1.043610   -0.132026    0.002450   -0.000099    0.000066
H     3.044530    1.076895   -0.004559   -1.805635   -0.829586    0.018235
11
* Frequency(31) 3206.6182
C     1.538746    0.380100    0.011052    0.159192    0.075466   -0.001799
C     1.408630   -0.959877    0.117811    0.008550   -0.016565    0.001598
N     0.241724   -1.624472    0.140586   -0.001016   -0.000181   -0.000012
C    -0.900096   -0.884536    0.048816   -0.000631   -0.000616    0.000034
N    -0.762028    0.509085   -0.063350   -0.000739   -0.000393    0.000013
C     0.429103    1.240837   -0.090958   -0.005609    0.006459   -0.000688
O    -2.041489   -1.368842    0.058336    0.000140    0.000087   -0.000004
O     0.393763    2.478725   -0.194889    0.000579   -0.001493    0.000139
H     2.343315   -1.626794    0.198520   -0.108255    0.088516   -0.010278
H    -1.626628    1.043616   -0.132031    0.002450   -0.000099    0.000066
H     3.158316    1.129174   -0.005708   -1.805635   -0.829586    0.018235
11
* Frequency(31) 3206.6182
C     1.534243    0.377966    0.011103    0.159192    0.075466   -0.001799
C     1.408388   -0.959408    0.117765    0.008550   -0.016565    0.001598
N     0.241753   -1.624467    0.140586   -0.001016   -0.000181   -0.000012
C    -0.900078   -0.884519    0.048815   -0.000631   -0.000616    0.000034
N    -0.762007    0.509096   -0.063351   -0.000739   -0.000393    0.000013
C     0.429262    1.240654   -0.090939   -0.005609    0.006459   -0.000688
O    -2.041492   -1.368844    0.058336    0.000140    0.000087   -0.000004
O     0.393746    2.478768   -0.194893    0.000579   -0.001493    0.000139
H     2.346377   -1.629297    0.198811   -0.108255    0.088516   -0.010278
H    -1.626697    1.043619   -0.132032    0.002450   -0.000099    0.000066
H     3.209386    1.152638   -0.006224   -1.805635   -0.829586    0.018235
11
* Frequency(31) 3206.6182
C     1.535758    0.378684    0.011086    0.159192    0.075466   -0.001799
C     1.408470   -0.959566    0.117781    0.008550   -0.016565    0.001598
N     0.241744   -1.624468    0.140586   -0.001016   -0.000181   -0.000012
C    -0.900084   -0.884524    0.048815   -0.000631   -0.000616    0.000034
N    -0.762014    0.509092   -0.063351   -0.000739   -0.000393    0.000013
C     0.429209    1.240716   -0.090945   -0.005609    0.006459   -0.000688
O    -2.041491   -1.368843    0.058336    0.000140    0.000087   -0.000004
O     0.393752    2.478753   -0.194892    0.000579   -0.001493    0.000139
H     2.345347   -1.628455    0.198713   -0.108255    0.088516   -0.010278
H    -1.626674    1.043618   -0.132032    0.002450   -0.000099    0.000066
H     3.192207    1.144745   -0.006051   -1.805635   -0.829586    0.018235
11
* Frequency(31) 3206.6182
C     1.543126    0.382176    0.011003    0.159192    0.075466   -0.001799
C     1.408865   -0.960333    0.117855    0.008550   -0.016565    0.001598
N     0.241697   -1.624477    0.140586   -0.001016   -0.000181   -0.000012
C    -0.900113   -0.884553    0.048817   -0.000631   -0.000616    0.000034
N    -0.762048    0.509074   -0.063350   -0.000739   -0.000393    0.000013
C     0.428949    1.241015   -0.090977   -0.005609    0.006459   -0.000688
O    -2.041485   -1.368839    0.058336    0.000140    0.000087   -0.000004
O     0.393779    2.478684   -0.194885    0.000579   -0.001493    0.000139
H     2.340337   -1.624359    0.198237   -0.108255    0.088516   -0.010278
H    -1.626561    1.043613   -0.132029    0.002450   -0.000099    0.000066
H     3.108639    1.106350   -0.005207   -1.805635   -0.829586    0.018235
11
* Frequency(31) 3206.6182
C     1.555548    0.388065    0.010863    0.159192    0.075466   -0.001799
C     1.409532   -0.961625    0.117979    0.008550   -0.016565    0.001598
N     0.241617   -1.624491    0.140585   -0.001016   -0.000181   -0.000012
C    -0.900162   -0.884601    0.048819   -0.000631   -0.000616    0.000034
N    -0.762106    0.509043   -0.063349   -0.000739   -0.000393    0.000013
C     0.428511    1.241519   -0.091031   -0.005609    0.006459   -0.000688
O    -2.041474   -1.368832    0.058336    0.000140    0.000087   -0.000004
O     0.393824    2.478568   -0.194875    0.000579   -0.001493    0.000139
H     2.331889   -1.617451    0.197435   -0.108255    0.088516   -0.010278
H    -1.626370    1.043606   -0.132024    0.002450   -0.000099    0.000066
H     2.967738    1.041614   -0.003784   -1.805635   -0.829586    0.018235
11
* Frequency(31) 3206.6182
C     1.571679    0.395712    0.010680    0.159192    0.075466   -0.001799
C     1.410399   -0.963304    0.118141    0.008550   -0.016565    0.001598
N     0.241514   -1.624509    0.140584   -0.001016   -0.000181   -0.000012
C    -0.900226   -0.884663    0.048823   -0.000631   -0.000616    0.000034
N    -0.762180    0.509003   -0.063348   -0.000739   -0.000393    0.000013
C     0.427943    1.242173   -0.091101   -0.005609    0.006459   -0.000688
O    -2.041460   -1.368824    0.058335    0.000140    0.000087   -0.000004
O     0.393883    2.478416   -0.194861    0.000579   -0.001493    0.000139
H     2.320920   -1.608482    0.196394   -0.108255    0.088516   -0.010278
H    -1.626121    1.043596   -0.132017    0.002450   -0.000099    0.000066
H     2.784774    0.957552   -0.001936   -1.805635   -0.829586    0.018235
11
* Frequency(31) 3206.6182
C     1.589770    0.404289    0.010476    0.159192    0.075466   -0.001799
C     1.411370   -0.965186    0.118323    0.008550   -0.016565    0.001598
N     0.241399   -1.624530    0.140582   -0.001016   -0.000181   -0.000012
C    -0.900298   -0.884733    0.048827   -0.000631   -0.000616    0.000034
N    -0.762264    0.508959   -0.063346   -0.000739   -0.000393    0.000013
C     0.427306    1.242907   -0.091179   -0.005609    0.006459   -0.000688
O    -2.041444   -1.368814    0.058335    0.000140    0.000087   -0.000004
O     0.393949    2.478247   -0.194845    0.000579   -0.001493    0.000139
H     2.308617   -1.598423    0.195226   -0.108255    0.088516   -0.010278
H    -1.625843    1.043584   -0.132009    0.002450   -0.000099    0.000066
H     2.579572    0.863274    0.000136   -1.805635   -0.829586    0.018235
