11
* (null), Energy   -1000.0000000
C     1.589770    0.404289    0.010476    0.671479    0.095637    0.011169
C     1.411370   -0.965186    0.118323    0.285946    0.220243   -0.009707
N     0.241399   -1.624530    0.140582   -0.065785    0.871958   -0.074914
C    -0.900298   -0.884733    0.048827   -0.402914    0.314691   -0.038408
N    -0.762264    0.508959   -0.063346   -0.149826    0.020955   -0.005655
C     0.427306    1.242907   -0.091179    0.233384   -0.550951    0.049982
O    -2.041444   -1.368814    0.058335   -0.227499   -0.252778    0.015612
O     0.393949    2.478247   -0.194845   -0.223479   -0.648533    0.047744
H     2.308617   -1.598423    0.195226   -0.097000   -0.332029    0.028506
H    -1.625843    1.043584   -0.132009    0.357309    0.836799   -0.051151
H     2.579572    0.863274    0.000136    0.505428    0.444348   -0.018706
11
* Frequency(10)  529.7306
C     1.666080    0.415157    0.011745    0.671479    0.095637    0.011169
C     1.443867   -0.940157    0.117220    0.285946    0.220243   -0.009707
N     0.233923   -1.525436    0.132069   -0.065785    0.871958   -0.074914
C    -0.946087   -0.848970    0.044462   -0.402914    0.314691   -0.038408
N    -0.779291    0.511340   -0.063989   -0.149826    0.020955   -0.005655
C     0.453829    1.180294   -0.085498    0.233384   -0.550951    0.049982
O    -2.067298   -1.397541    0.060109   -0.227499   -0.252778    0.015612
O     0.368551    2.404544   -0.189419   -0.223479   -0.648533    0.047744
H     2.297594   -1.636156    0.198465   -0.097000   -0.332029    0.028506
H    -1.585237    1.138682   -0.137822    0.357309    0.836799   -0.051151
H     2.637012    0.913772   -0.001990    0.505428    0.444348   -0.018706
11
* Frequency(10)  529.7306
C     1.734121    0.424848    0.012877    0.671479    0.095637    0.011169
C     1.472841   -0.917840    0.116236    0.285946    0.220243   -0.009707
N     0.227257   -1.437081    0.124478   -0.065785    0.871958   -0.074914
C    -0.986914   -0.817083    0.040570   -0.402914    0.314691   -0.038408
N    -0.794473    0.513464   -0.064562   -0.149826    0.020955   -0.005655
C     0.477477    1.124467   -0.080434    0.233384   -0.550951    0.049982
O    -2.090350   -1.423155    0.061691   -0.227499   -0.252778    0.015612
O     0.345906    2.338829   -0.184581   -0.223479   -0.648533    0.047744
H     2.287765   -1.669800    0.201354   -0.097000   -0.332029    0.028506
H    -1.549031    1.223475   -0.143006    0.357309    0.836799   -0.051151
H     2.688226    0.958798   -0.003885    0.505428    0.444348   -0.018706
11
* Frequency(10)  529.7306
C     1.786519    0.432311    0.013748    0.671479    0.095637    0.011169
C     1.495155   -0.900653    0.115478    0.285946    0.220243   -0.009707
N     0.222123   -1.369039    0.118632   -0.065785    0.871958   -0.074914
C    -1.018355   -0.792526    0.037573   -0.402914    0.314691   -0.038408
N    -0.806165    0.515099   -0.065003   -0.149826    0.020955   -0.005655
C     0.495689    1.081474   -0.076533    0.233384   -0.550951    0.049982
O    -2.108103   -1.442880    0.062910   -0.227499   -0.252778    0.015612
O     0.328467    2.288221   -0.180855   -0.223479   -0.648533    0.047744
H     2.280196   -1.695710    0.203578   -0.097000   -0.332029    0.028506
H    -1.521149    1.288774   -0.146997    0.357309    0.836799   -0.051151
H     2.727667    0.993472   -0.005345    0.505428    0.444348   -0.018706
11
* Frequency(10)  529.7306
C     1.817596    0.436738    0.014265    0.671479    0.095637    0.011169
C     1.508389   -0.890460    0.115029    0.285946    0.220243   -0.009707
N     0.219079   -1.328683    0.115165   -0.065785    0.871958   -0.074914
C    -1.037003   -0.777962    0.035795   -0.402914    0.314691   -0.038408
N    -0.813099    0.516069   -0.065265   -0.149826    0.020955   -0.005655
C     0.506491    1.055975   -0.074220    0.233384   -0.550951    0.049982
O    -2.118632   -1.454579    0.063632   -0.227499   -0.252778    0.015612
O     0.318124    2.258206   -0.178646   -0.223479   -0.648533    0.047744
H     2.275706   -1.711077    0.204898   -0.097000   -0.332029    0.028506
H    -1.504612    1.327502   -0.149364    0.357309    0.836799   -0.051151
H     2.751059    1.014037   -0.006211    0.505428    0.444348   -0.018706
11
* Frequency(10)  529.7306
C     1.823985    0.437647    0.014372    0.671479    0.095637    0.011169
C     1.511110   -0.888365    0.114937    0.285946    0.220243   -0.009707
N     0.218453   -1.320387    0.114452   -0.065785    0.871958   -0.074914
C    -1.040836   -0.774968    0.035430   -0.402914    0.314691   -0.038408
N    -0.814524    0.516268   -0.065318   -0.149826    0.020955   -0.005655
C     0.508711    1.050733   -0.073745    0.233384   -0.550951    0.049982
O    -2.120796   -1.456984    0.063781   -0.227499   -0.252778    0.015612
O     0.315998    2.252035   -0.178191   -0.223479   -0.648533    0.047744
H     2.274783   -1.714236    0.205169   -0.097000   -0.332029    0.028506
H    -1.501212    1.335464   -0.149851    0.357309    0.836799   -0.051151
H     2.755868    1.018265   -0.006389    0.505428    0.444348   -0.018706
11
* Frequency(10)  529.7306
C     1.804993    0.434942    0.014056    0.671479    0.095637    0.011169
C     1.503022   -0.894594    0.115211    0.285946    0.220243   -0.009707
N     0.220313   -1.345049    0.116571   -0.065785    0.871958   -0.074914
C    -1.029440   -0.783868    0.036516   -0.402914    0.314691   -0.038408
N    -0.810287    0.515675   -0.065159   -0.149826    0.020955   -0.005655
C     0.502110    1.066316   -0.075158    0.233384   -0.550951    0.049982
O    -2.114362   -1.449834    0.063339   -0.227499   -0.252778    0.015612
O     0.322319    2.270378   -0.179542   -0.223479   -0.648533    0.047744
H     2.277527   -1.704845    0.204362   -0.097000   -0.332029    0.028506
H    -1.511318    1.311796   -0.148404    0.357309    0.836799   -0.051151
H     2.741572    1.005697   -0.005859    0.505428    0.444348   -0.018706
11
* Frequency(10)  529.7306
C     1.762678    0.428916    0.013352    0.671479    0.095637    0.011169
C     1.485002   -0.908473    0.115823    0.285946    0.220243   -0.009707
N     0.224459   -1.399997    0.121292   -0.065785    0.871958   -0.074914
C    -1.004050   -0.803699    0.038937   -0.402914    0.314691   -0.038408
N    -0.800845    0.514355   -0.064802   -0.149826    0.020955   -0.005655
C     0.487403    1.101035   -0.078308    0.233384   -0.550951    0.049982
O    -2.100025   -1.433905    0.062355   -0.227499   -0.252778    0.015612
O     0.336402    2.311247   -0.182551   -0.223479   -0.648533    0.047744
H     2.283640   -1.683921    0.202566   -0.097000   -0.332029    0.028506
H    -1.533835    1.259063   -0.145181    0.357309    0.836799   -0.051151
H     2.709722    0.977695   -0.004681    0.505428    0.444348   -0.018706
11
* Frequency(10)  529.7306
C     1.701626    0.420220    0.012336    0.671479    0.095637    0.011169
C     1.459004   -0.928498    0.116706    0.285946    0.220243   -0.009707
N     0.230440   -1.479277    0.128103   -0.065785    0.871958   -0.074914
C    -0.967416   -0.832312    0.042429   -0.402914    0.314691   -0.038408
N    -0.787223    0.512450   -0.064288   -0.149826    0.020955   -0.005655
C     0.466183    1.151129   -0.082853    0.233384   -0.550951    0.049982
O    -2.079341   -1.410922    0.060936   -0.227499   -0.252778    0.015612
O     0.356721    2.370213   -0.186892   -0.223479   -0.648533    0.047744
H     2.292459   -1.653732    0.199974   -0.097000   -0.332029    0.028506
H    -1.566322    1.182980   -0.140530    0.357309    0.836799   -0.051151
H     2.663767    0.937294   -0.002980    0.505428    0.444348   -0.018706
11
* Frequency(10)  529.7306
C     1.628453    0.409798    0.011119    0.671479    0.095637    0.011169
C     1.427843   -0.952499    0.117764    0.285946    0.220243   -0.009707
N     0.237609   -1.574298    0.136267   -0.065785    0.871958   -0.074914
C    -0.923509   -0.866605    0.046614   -0.402914    0.314691   -0.038408
N    -0.770896    0.510166   -0.063672   -0.149826    0.020955   -0.005655
C     0.440751    1.211168   -0.088299    0.233384   -0.550951    0.049982
O    -2.054549   -1.383376    0.059234   -0.227499   -0.252778    0.015612
O     0.381074    2.440886   -0.192094   -0.223479   -0.648533    0.047744
H     2.303029   -1.617550    0.196868   -0.097000   -0.332029    0.028506
H    -1.605259    1.091791   -0.134956    0.357309    0.836799   -0.051151
H     2.608689    0.888872   -0.000941    0.505428    0.444348   -0.018706
11
* Frequency(10)  529.7306
C     1.551088    0.398779    0.009832    0.671479    0.095637    0.011169
C     1.394898   -0.977874    0.118882    0.285946    0.220243   -0.009707
N     0.245189   -1.674762    0.144898   -0.065785    0.871958   -0.074914
C    -0.877087   -0.902862    0.051039   -0.402914    0.314691   -0.038408
N    -0.753633    0.507752   -0.063020   -0.149826    0.020955   -0.005655
C     0.413861    1.274646   -0.094058    0.233384   -0.550951    0.049982
O    -2.028338   -1.354252    0.057436   -0.227499   -0.252778    0.015612
O     0.406823    2.515608   -0.197595   -0.223479   -0.648533    0.047744
H     2.314205   -1.579295    0.193584   -0.097000   -0.332029    0.028506
H    -1.646427    0.995378   -0.129063    0.357309    0.836799   -0.051151
H     2.550456    0.837676    0.001214    0.505428    0.444348   -0.018706
11
* Frequency(10)  529.7306
C     1.477914    0.388357    0.008615    0.671479    0.095637    0.011169
C     1.363737   -1.001875    0.119940    0.285946    0.220243   -0.009707
N     0.252358   -1.769782    0.153062   -0.065785    0.871958   -0.074914
C    -0.833180   -0.937155    0.055225   -0.402914    0.314691   -0.038408
N    -0.737306    0.505468   -0.062404   -0.149826    0.020955   -0.005655
C     0.388428    1.334685   -0.099505    0.233384   -0.550951    0.049982
O    -2.003546   -1.326706    0.055734   -0.227499   -0.252778    0.015612
O     0.431176    2.586280   -0.202798   -0.223479   -0.648533    0.047744
H     2.324776   -1.543113    0.190477   -0.097000   -0.332029    0.028506
H    -1.685364    0.904189   -0.123489    0.357309    0.836799   -0.051151
H     2.495378    0.789254    0.003252    0.505428    0.444348   -0.018706
11
* Frequency(10)  529.7306
C     1.416862    0.379662    0.007600    0.671479    0.095637    0.011169
C     1.337738   -1.021900    0.120823    0.285946    0.220243   -0.009707
N     0.258339   -1.849062    0.159873   -0.065785    0.871958   -0.074914
C    -0.796546   -0.965768    0.058717   -0.402914    0.314691   -0.038408
N    -0.723684    0.503563   -0.061890   -0.149826    0.020955   -0.005655
C     0.367209    1.384779   -0.104049    0.233384   -0.550951    0.049982
O    -1.982862   -1.303723    0.054315   -0.227499   -0.252778    0.015612
O     0.451495    2.645246   -0.207139   -0.223479   -0.648533    0.047744
H     2.333595   -1.512924    0.187886   -0.097000   -0.332029    0.028506
H    -1.717851    0.828106   -0.118838    0.357309    0.836799   -0.051151
H     2.449423    0.748853    0.004953    0.505428    0.444348   -0.018706
11
* Frequency(10)  529.7306
C     1.374547    0.373635    0.006896    0.671479    0.095637    0.011169
C     1.319719   -1.035779    0.121434    0.285946    0.220243   -0.009707
N     0.262485   -1.904010    0.164594   -0.065785    0.871958   -0.074914
C    -0.771156   -0.985599    0.061137   -0.402914    0.314691   -0.038408
N    -0.714242    0.502242   -0.061534   -0.149826    0.020955   -0.005655
C     0.352501    1.419498   -0.107199    0.233384   -0.550951    0.049982
O    -1.968525   -1.287793    0.053331   -0.227499   -0.252778    0.015612
O     0.465578    2.686115   -0.210148   -0.223479   -0.648533    0.047744
H     2.339708   -1.492001    0.186089   -0.097000   -0.332029    0.028506
H    -1.740368    0.775373   -0.115615    0.357309    0.836799   -0.051151
H     2.417572    0.720851    0.006132    0.505428    0.444348   -0.018706
11
* Frequency(10)  529.7306
C     1.355555    0.370930    0.006580    0.671479    0.095637    0.011169
C     1.311631   -1.042008    0.121709    0.285946    0.220243   -0.009707
N     0.264345   -1.928673    0.166713   -0.065785    0.871958   -0.074914
C    -0.759760   -0.994499    0.062224   -0.402914    0.314691   -0.038408
N    -0.710004    0.501649   -0.061374   -0.149826    0.020955   -0.005655
C     0.345900    1.435081   -0.108613    0.233384   -0.550951    0.049982
O    -1.962091   -1.280644    0.052889   -0.227499   -0.252778    0.015612
O     0.471899    2.704458   -0.211498   -0.223479   -0.648533    0.047744
H     2.342451   -1.482609    0.185283   -0.097000   -0.332029    0.028506
H    -1.750474    0.751705   -0.114168    0.357309    0.836799   -0.051151
H     2.403277    0.708283    0.006661    0.505428    0.444348   -0.018706
11
* Frequency(10)  529.7306
C     1.361944    0.371840    0.006686    0.671479    0.095637    0.011169
C     1.314352   -1.039913    0.121617    0.285946    0.220243   -0.009707
N     0.263719   -1.920376    0.166000   -0.065785    0.871958   -0.074914
C    -0.763593   -0.991505    0.061858   -0.402914    0.314691   -0.038408
N    -0.711430    0.501849   -0.061428   -0.149826    0.020955   -0.005655
C     0.348121    1.429839   -0.108137    0.233384   -0.550951    0.049982
O    -1.964255   -1.283049    0.053038   -0.227499   -0.252778    0.015612
O     0.469773    2.698288   -0.211044   -0.223479   -0.648533    0.047744
H     2.341528   -1.485769    0.185554   -0.097000   -0.332029    0.028506
H    -1.747074    0.759667   -0.114655    0.357309    0.836799   -0.051151
H     2.408086    0.712511    0.006483    0.505428    0.444348   -0.018706
11
* Frequency(10)  529.7306
C     1.393021    0.376266    0.007203    0.671479    0.095637    0.011169
C     1.327586   -1.029719    0.121167    0.285946    0.220243   -0.009707
N     0.260675   -1.880021    0.162533   -0.065785    0.871958   -0.074914
C    -0.782241   -0.976941    0.060081   -0.402914    0.314691   -0.038408
N    -0.718364    0.502819   -0.061689   -0.149826    0.020955   -0.005655
C     0.358922    1.404340   -0.105824    0.233384   -0.550951    0.049982
O    -1.974785   -1.294748    0.053760   -0.227499   -0.252778    0.015612
O     0.459430    2.668272   -0.208834   -0.223479   -0.648533    0.047744
H     2.337039   -1.501135    0.186873   -0.097000   -0.332029    0.028506
H    -1.730538    0.798395   -0.117022    0.357309    0.836799   -0.051151
H     2.431478    0.733076    0.005617    0.505428    0.444348   -0.018706
11
* Frequency(10)  529.7306
C     1.445419    0.383729    0.008075    0.671479    0.095637    0.011169
C     1.349899   -1.012533    0.120410    0.285946    0.220243   -0.009707
N     0.255541   -1.811978    0.156687   -0.065785    0.871958   -0.074914
C    -0.813682   -0.952384    0.057084   -0.402914    0.314691   -0.038408
N    -0.730056    0.504454   -0.062131   -0.149826    0.020955   -0.005655
C     0.377134    1.361347   -0.101924    0.233384   -0.550951    0.049982
O    -1.992537   -1.314473    0.054979   -0.227499   -0.252778    0.015612
O     0.441991    2.617665   -0.205108   -0.223479   -0.648533    0.047744
H     2.329470   -1.527045    0.189098   -0.097000   -0.332029    0.028506
H    -1.702655    0.863694   -0.121013    0.357309    0.836799   -0.051151
H     2.470918    0.767751    0.004158    0.505428    0.444348   -0.018706
11
* Frequency(10)  529.7306
C     1.513460    0.393420    0.009207    0.671479    0.095637    0.011169
C     1.378874   -0.990216    0.119426    0.285946    0.220243   -0.009707
N     0.248875   -1.723623    0.149096   -0.065785    0.871958   -0.074914
C    -0.854509   -0.920497    0.053192   -0.402914    0.314691   -0.038408
N    -0.745237    0.506577   -0.062703   -0.149826    0.020955   -0.005655
C     0.400783    1.305520   -0.096859    0.233384   -0.550951    0.049982
O    -2.015590   -1.340087    0.056561   -0.227499   -0.252778    0.015612
O     0.419346    2.551949   -0.200271   -0.223479   -0.648533    0.047744
H     2.319641   -1.560689    0.191986   -0.097000   -0.332029    0.028506
H    -1.666449    0.948487   -0.126196    0.357309    0.836799   -0.051151
H     2.522133    0.812776    0.002262    0.505428    0.444348   -0.018706
11
* Frequency(10)  529.7306
C     1.589770    0.404289    0.010476    0.671479    0.095637    0.011169
C     1.411370   -0.965186    0.118323    0.285946    0.220243   -0.009707
N     0.241399   -1.624530    0.140582   -0.065785    0.871958   -0.074914
C    -0.900298   -0.884733    0.048827   -0.402914    0.314691   -0.038408
N    -0.762264    0.508959   -0.063346   -0.149826    0.020955   -0.005655
C     0.427306    1.242907   -0.091179    0.233384   -0.550951    0.049982
O    -2.041444   -1.368814    0.058335   -0.227499   -0.252778    0.015612
O     0.393949    2.478247   -0.194845   -0.223479   -0.648533    0.047744
H     2.308617   -1.598423    0.195226   -0.097000   -0.332029    0.028506
H    -1.625843    1.043584   -0.132009    0.357309    0.836799   -0.051151
H     2.579572    0.863274    0.000136    0.505428    0.444348   -0.018706
