11
* (null), Energy   -1000.0000000
C     1.356566    0.572472   -0.019574    0.485546    0.289275   -0.011037
C     1.179217   -0.796685    0.088575   -0.125353    0.240316   -0.022008
N     0.008210   -1.454494    0.110838    0.090767   -0.851515    0.072991
C    -1.131376   -0.714764    0.018532   -0.074975    0.023742   -0.004168
N    -0.995238    0.677642   -0.092617   -0.440329    0.572563   -0.060254
C     0.194158    1.409660   -0.120689    0.113728   -0.085063    0.010051
O    -2.273001   -1.200862    0.028059    0.021572   -0.002867    0.000804
O     0.161758    2.645985   -0.224814   -0.057055   -0.230138    0.017659
H     2.075560   -1.430341    0.165515    0.174512    0.655337   -0.057763
H    -1.858608    1.212888   -0.161920   -0.081391    1.195966   -0.094365
H     2.345944    1.032379   -0.030255    0.573831    0.143484    0.005744
11
* Frequency(18)  977.0673
C     1.411746    0.605346   -0.020828    0.485546    0.289275   -0.011037
C     1.164971   -0.769374    0.086074   -0.125353    0.240316   -0.022008
N     0.018525   -1.551264    0.119133    0.090767   -0.851515    0.072991
C    -1.139896   -0.712066    0.018058   -0.074975    0.023742   -0.004168
N    -1.045279    0.742711   -0.099464   -0.440329    0.572563   -0.060254
C     0.207082    1.399993   -0.119547    0.113728   -0.085063    0.010051
O    -2.270550   -1.201188    0.028150    0.021572   -0.002867    0.000804
O     0.155274    2.619831   -0.222807   -0.057055   -0.230138    0.017659
H     2.095392   -1.355865    0.158950    0.174512    0.655337   -0.057763
H    -1.867858    1.348803   -0.172644   -0.081391    1.195966   -0.094365
H     2.411157    1.048685   -0.029602    0.573831    0.143484    0.005744
11
* Frequency(18)  977.0673
C     1.460946    0.634658   -0.021946    0.485546    0.289275   -0.011037
C     1.152269   -0.745023    0.083844   -0.125353    0.240316   -0.022008
N     0.027723   -1.637548    0.126529    0.090767   -0.851515    0.072991
C    -1.147493   -0.709660    0.017636   -0.074975    0.023742   -0.004168
N    -1.089898    0.800729   -0.105570   -0.440329    0.572563   -0.060254
C     0.218606    1.391373   -0.118528    0.113728   -0.085063    0.010051
O    -2.268364   -1.201479    0.028232    0.021572   -0.002867    0.000804
O     0.149493    2.596512   -0.221018   -0.057055   -0.230138    0.017659
H     2.113075   -1.289460    0.153097    0.174512    0.655337   -0.057763
H    -1.876105    1.469990   -0.182206   -0.081391    1.195966   -0.094365
H     2.469303    1.063225   -0.029020    0.573831    0.143484    0.005744
11
* Frequency(18)  977.0673
C     1.498835    0.657232   -0.022807    0.485546    0.289275   -0.011037
C     1.142488   -0.726270    0.082127   -0.125353    0.240316   -0.022008
N     0.034805   -1.703995    0.132225    0.090767   -0.851515    0.072991
C    -1.153344   -0.707807    0.017310   -0.074975    0.023742   -0.004168
N    -1.124258    0.845408   -0.110272   -0.440329    0.572563   -0.060254
C     0.227481    1.384735   -0.117744    0.113728   -0.085063    0.010051
O    -2.266680   -1.201703    0.028294    0.021572   -0.002867    0.000804
O     0.145040    2.578553   -0.219640   -0.057055   -0.230138    0.017659
H     2.126693   -1.238322    0.148589    0.174512    0.655337   -0.057763
H    -1.882456    1.563316   -0.189570   -0.081391    1.195966   -0.094365
H     2.514082    1.074421   -0.028572    0.573831    0.143484    0.005744
11
* Frequency(18)  977.0673
C     1.521307    0.670620   -0.023318    0.485546    0.289275   -0.011037
C     1.136686   -0.715148    0.081108   -0.125353    0.240316   -0.022008
N     0.039006   -1.743405    0.135603    0.090767   -0.851515    0.072991
C    -1.156814   -0.706709    0.017117   -0.074975    0.023742   -0.004168
N    -1.144637    0.871907   -0.113060   -0.440329    0.572563   -0.060254
C     0.232744    1.380798   -0.117279    0.113728   -0.085063    0.010051
O    -2.265682   -1.201835    0.028331    0.021572   -0.002867    0.000804
O     0.142400    2.567902   -0.218822   -0.057055   -0.230138    0.017659
H     2.134770   -1.207991    0.145916    0.174512    0.655337   -0.057763
H    -1.886223    1.618667   -0.193937   -0.081391    1.195966   -0.094365
H     2.540639    1.081062   -0.028306    0.573831    0.143484    0.005744
11
* Frequency(18)  977.0673
C     1.525927    0.673372   -0.023423    0.485546    0.289275   -0.011037
C     1.135493   -0.712861    0.080899   -0.125353    0.240316   -0.022008
N     0.039870   -1.751506    0.136298    0.090767   -0.851515    0.072991
C    -1.157527   -0.706483    0.017078   -0.074975    0.023742   -0.004168
N    -1.148827    0.877355   -0.113634   -0.440329    0.572563   -0.060254
C     0.233826    1.379989   -0.117183    0.113728   -0.085063    0.010051
O    -2.265477   -1.201863    0.028339    0.021572   -0.002867    0.000804
O     0.141857    2.565712   -0.218654   -0.057055   -0.230138    0.017659
H     2.136430   -1.201756    0.145366    0.174512    0.655337   -0.057763
H    -1.886998    1.630046   -0.194835   -0.081391    1.195966   -0.094365
H     2.546099    1.082427   -0.028251    0.573831    0.143484    0.005744
11
* Frequency(18)  977.0673
C     1.512194    0.665190   -0.023111    0.485546    0.289275   -0.011037
C     1.139039   -0.719658    0.081521   -0.125353    0.240316   -0.022008
N     0.037303   -1.727422    0.134233    0.090767   -0.851515    0.072991
C    -1.155407   -0.707154    0.017196   -0.074975    0.023742   -0.004168
N    -1.136373    0.861161   -0.111930   -0.440329    0.572563   -0.060254
C     0.230610    1.382395   -0.117467    0.113728   -0.085063    0.010051
O    -2.266087   -1.201781    0.028316    0.021572   -0.002867    0.000804
O     0.143471    2.572221   -0.219154   -0.057055   -0.230138    0.017659
H     2.131494   -1.220292    0.147000    0.174512    0.655337   -0.057763
H    -1.884695    1.596219   -0.192166   -0.081391    1.195966   -0.094365
H     2.529869    1.078369   -0.028414    0.573831    0.143484    0.005744
11
* Frequency(18)  977.0673
C     1.481596    0.646961   -0.022416    0.485546    0.289275   -0.011037
C     1.146938   -0.734802    0.082908   -0.125353    0.240316   -0.022008
N     0.031583   -1.673762    0.129633    0.090767   -0.851515    0.072991
C    -1.150682   -0.708650    0.017458   -0.074975    0.023742   -0.004168
N    -1.108624    0.825079   -0.108132   -0.440329    0.572563   -0.060254
C     0.223443    1.387756   -0.118101    0.113728   -0.085063    0.010051
O    -2.267446   -1.201601    0.028266    0.021572   -0.002867    0.000804
O     0.147066    2.586724   -0.220267   -0.057055   -0.230138    0.017659
H     2.120497   -1.261589    0.150640    0.174512    0.655337   -0.057763
H    -1.879566    1.520853   -0.186220   -0.081391    1.195966   -0.094365
H     2.493708    1.069327   -0.028776    0.573831    0.143484    0.005744
11
* Frequency(18)  977.0673
C     1.437450    0.620660   -0.021412    0.485546    0.289275   -0.011037
C     1.158336   -0.756652    0.084909   -0.125353    0.240316   -0.022008
N     0.023330   -1.596341    0.122997    0.090767   -0.851515    0.072991
C    -1.143865   -0.710809    0.017837   -0.074975    0.023742   -0.004168
N    -1.068589    0.773021   -0.102654   -0.440329    0.572563   -0.060254
C     0.213103    1.395490   -0.119015    0.113728   -0.085063    0.010051
O    -2.269408   -1.201340    0.028193    0.021572   -0.002867    0.000804
O     0.152254    2.607649   -0.221872   -0.057055   -0.230138    0.017659
H     2.104630   -1.321174    0.155892    0.174512    0.655337   -0.057763
H    -1.872166    1.412114   -0.177640   -0.081391    1.195966   -0.094365
H     2.441534    1.056281   -0.029298    0.573831    0.143484    0.005744
11
* Frequency(18)  977.0673
C     1.384538    0.589136   -0.020209    0.485546    0.289275   -0.011037
C     1.171996   -0.782840    0.087307   -0.125353    0.240316   -0.022008
N     0.013439   -1.503548    0.115043    0.090767   -0.851515    0.072991
C    -1.135695   -0.713396    0.018292   -0.074975    0.023742   -0.004168
N    -1.020605    0.710627   -0.096088   -0.440329    0.572563   -0.060254
C     0.200709    1.404759   -0.120110    0.113728   -0.085063    0.010051
O    -2.271758   -1.201028    0.028105    0.021572   -0.002867    0.000804
O     0.158471    2.632728   -0.223797   -0.057055   -0.230138    0.017659
H     2.085613   -1.392588    0.162187    0.174512    0.655337   -0.057763
H    -1.863297    1.281785   -0.167356   -0.081391    1.195966   -0.094365
H     2.379002    1.040645   -0.029924    0.573831    0.143484    0.005744
11
* Frequency(18)  977.0673
C     1.328595    0.555807   -0.018938    0.485546    0.289275   -0.011037
C     1.186438   -0.810529    0.089843   -0.125353    0.240316   -0.022008
N     0.002981   -1.405440    0.106633    0.090767   -0.851515    0.072991
C    -1.127057   -0.716132    0.018772   -0.074975    0.023742   -0.004168
N    -0.969872    0.644658   -0.089146   -0.440329    0.572563   -0.060254
C     0.187606    1.414560   -0.121268    0.113728   -0.085063    0.010051
O    -2.274244   -1.200697    0.028013    0.021572   -0.002867    0.000804
O     0.165045    2.659243   -0.225831   -0.057055   -0.230138    0.017659
H     2.065506   -1.468093    0.168842    0.174512    0.655337   -0.057763
H    -1.853919    1.143990   -0.156484   -0.081391    1.195966   -0.094365
H     2.312887    1.024113   -0.030586    0.573831    0.143484    0.005744
11
* Frequency(18)  977.0673
C     1.275683    0.524284   -0.017735    0.485546    0.289275   -0.011037
C     1.200099   -0.836717    0.092241   -0.125353    0.240316   -0.022008
N    -0.006910   -1.312648    0.098679    0.090767   -0.851515    0.072991
C    -1.118886   -0.718719    0.019226   -0.074975    0.023742   -0.004168
N    -0.921888    0.582264   -0.082580   -0.440329    0.572563   -0.060254
C     0.175213    1.423830   -0.122363    0.113728   -0.085063    0.010051
O    -2.276594   -1.200385    0.027925    0.021572   -0.002867    0.000804
O     0.171263    2.684322   -0.227756   -0.057055   -0.230138    0.017659
H     2.046489   -1.539508    0.175137    0.174512    0.655337   -0.057763
H    -1.845050    1.013662   -0.146201   -0.081391    1.195966   -0.094365
H     2.250355    1.008478   -0.031211    0.573831    0.143484    0.005744
11
* Frequency(18)  977.0673
C     1.231537    0.497983   -0.016732    0.485546    0.289275   -0.011037
C     1.211496   -0.858567    0.094242   -0.125353    0.240316   -0.022008
N    -0.015163   -1.235226    0.092043    0.090767   -0.851515    0.072991
C    -1.112069   -0.720878    0.019605   -0.074975    0.023742   -0.004168
N    -0.881852    0.530206   -0.077101   -0.440329    0.572563   -0.060254
C     0.164872    1.431564   -0.123277    0.113728   -0.085063    0.010051
O    -2.278556   -1.200124    0.027852    0.021572   -0.002867    0.000804
O     0.176450    2.705247   -0.229361   -0.057055   -0.230138    0.017659
H     2.030622   -1.599092    0.180389    0.174512    0.655337   -0.057763
H    -1.837650    0.904922   -0.137621   -0.081391    1.195966   -0.094365
H     2.198181    0.995432   -0.031734    0.573831    0.143484    0.005744
11
* Frequency(18)  977.0673
C     1.200939    0.479753   -0.016036    0.485546    0.289275   -0.011037
C     1.219395   -0.873711    0.095629   -0.125353    0.240316   -0.022008
N    -0.020883   -1.181566    0.087443    0.090767   -0.851515    0.072991
C    -1.107345   -0.722374    0.019868   -0.074975    0.023742   -0.004168
N    -0.854104    0.494124   -0.073304   -0.440329    0.572563   -0.060254
C     0.157706    1.436924   -0.123910    0.113728   -0.085063    0.010051
O    -2.279915   -1.199943    0.027801    0.021572   -0.002867    0.000804
O     0.180046    2.719750   -0.230474   -0.057055   -0.230138    0.017659
H     2.019625   -1.640390    0.184029    0.174512    0.655337   -0.057763
H    -1.832521    0.829556   -0.131674   -0.081391    1.195966   -0.094365
H     2.162020    0.986390   -0.032096    0.573831    0.143484    0.005744
11
* Frequency(18)  977.0673
C     1.187206    0.471571   -0.015724    0.485546    0.289275   -0.011037
C     1.222941   -0.880508    0.096252   -0.125353    0.240316   -0.022008
N    -0.023450   -1.157482    0.085378    0.090767   -0.851515    0.072991
C    -1.105224   -0.723046    0.019985   -0.074975    0.023742   -0.004168
N    -0.841650    0.477930   -0.071600   -0.440329    0.572563   -0.060254
C     0.154489    1.439330   -0.124195    0.113728   -0.085063    0.010051
O    -2.280525   -1.199862    0.027779    0.021572   -0.002867    0.000804
O     0.181659    2.726259   -0.230974   -0.057055   -0.230138    0.017659
H     2.014689   -1.658925    0.185663    0.174512    0.655337   -0.057763
H    -1.830219    0.795729   -0.129005   -0.081391    1.195966   -0.094365
H     2.145789    0.982332   -0.032258    0.573831    0.143484    0.005744
11
* Frequency(18)  977.0673
C     1.191826    0.474324   -0.015829    0.485546    0.289275   -0.011037
C     1.221748   -0.878222    0.096042   -0.125353    0.240316   -0.022008
N    -0.022586   -1.165584    0.086073    0.090767   -0.851515    0.072991
C    -1.105937   -0.722820    0.019946   -0.074975    0.023742   -0.004168
N    -0.845839    0.483378   -0.072173   -0.440329    0.572563   -0.060254
C     0.155571    1.438521   -0.124099    0.113728   -0.085063    0.010051
O    -2.280320   -1.199890    0.027786    0.021572   -0.002867    0.000804
O     0.181116    2.724069   -0.230806   -0.057055   -0.230138    0.017659
H     2.016349   -1.652690    0.185113    0.174512    0.655337   -0.057763
H    -1.830993    0.807108   -0.129903   -0.081391    1.195966   -0.094365
H     2.151249    0.983697   -0.032204    0.573831    0.143484    0.005744
11
* Frequency(18)  977.0673
C     1.214298    0.487712   -0.016340    0.485546    0.289275   -0.011037
C     1.215947   -0.867099    0.095024   -0.125353    0.240316   -0.022008
N    -0.018385   -1.204993    0.089451    0.090767   -0.851515    0.072991
C    -1.109407   -0.721721    0.019753   -0.074975    0.023742   -0.004168
N    -0.866218    0.509877   -0.074962   -0.440329    0.572563   -0.060254
C     0.160834    1.434584   -0.123634    0.113728   -0.085063    0.010051
O    -2.279322   -1.200022    0.027823    0.021572   -0.002867    0.000804
O     0.178476    2.713418   -0.229988   -0.057055   -0.230138    0.017659
H     2.024426   -1.622360    0.182440    0.174512    0.655337   -0.057763
H    -1.834760    0.862460   -0.134270   -0.081391    1.195966   -0.094365
H     2.177807    0.990337   -0.031938    0.573831    0.143484    0.005744
11
* Frequency(18)  977.0673
C     1.252187    0.510285   -0.017201    0.485546    0.289275   -0.011037
C     1.206165   -0.848346    0.093306   -0.125353    0.240316   -0.022008
N    -0.011303   -1.271440    0.095147    0.090767   -0.851515    0.072991
C    -1.115258   -0.719868    0.019428   -0.074975    0.023742   -0.004168
N    -0.900579    0.554556   -0.079664   -0.440329    0.572563   -0.060254
C     0.169709    1.427946   -0.122850    0.113728   -0.085063    0.010051
O    -2.277638   -1.200246    0.027886    0.021572   -0.002867    0.000804
O     0.174024    2.695459   -0.228610   -0.057055   -0.230138    0.017659
H     2.038044   -1.571221    0.177932    0.174512    0.655337   -0.057763
H    -1.841111    0.955786   -0.141634   -0.081391    1.195966   -0.094365
H     2.222585    1.001534   -0.031489    0.573831    0.143484    0.005744
11
* Frequency(18)  977.0673
C     1.301387    0.539597   -0.018319    0.485546    0.289275   -0.011037
C     1.193463   -0.823995    0.091076   -0.125353    0.240316   -0.022008
N    -0.002105   -1.357724    0.102543    0.090767   -0.851515    0.072991
C    -1.122855   -0.717462    0.019005   -0.074975    0.023742   -0.004168
N    -0.945197    0.612574   -0.085769   -0.440329    0.572563   -0.060254
C     0.181233    1.419327   -0.121831    0.113728   -0.085063    0.010051
O    -2.275453   -1.200537    0.027967    0.021572   -0.002867    0.000804
O     0.168242    2.672139   -0.226821   -0.057055   -0.230138    0.017659
H     2.055727   -1.504816    0.172079    0.174512    0.655337   -0.057763
H    -1.849358    1.076972   -0.151196   -0.081391    1.195966   -0.094365
H     2.280731    1.016073   -0.030907    0.573831    0.143484    0.005744
11
* Frequency(18)  977.0673
C     1.356566    0.572472   -0.019574    0.485546    0.289275   -0.011037
C     1.179217   -0.796685    0.088575   -0.125353    0.240316   -0.022008
N     0.008210   -1.454494    0.110838    0.090767   -0.851515    0.072991
C    -1.131376   -0.714764    0.018532   -0.074975    0.023742   -0.004168
N    -0.995238    0.677642   -0.092617   -0.440329    0.572563   -0.060254
C     0.194158    1.409660   -0.120689    0.113728   -0.085063    0.010051
O    -2.273001   -1.200862    0.028059    0.021572   -0.002867    0.000804
O     0.161758    2.645985   -0.224814   -0.057055   -0.230138    0.017659
H     2.075560   -1.430341    0.165515    0.174512    0.655337   -0.057763
H    -1.858608    1.212888   -0.161920   -0.081391    1.195966   -0.094365
H     2.345944    1.032379   -0.030255    0.573831    0.143484    0.005744
