11
* (null), Energy   -1000.0000000
C     1.589770    0.404289    0.010476   -0.375746   -0.061083   -0.006644
C     1.411370   -0.965186    0.118323    0.416976   -0.012069    0.013314
N     0.241399   -1.624530    0.140582    0.317821    0.065345    0.003126
C    -0.900298   -0.884733    0.048827    0.273529    0.104987   -0.001919
N    -0.762264    0.508959   -0.063346   -0.463629    0.039718   -0.016712
C     0.427306    1.242907   -0.091179   -0.563478   -0.391517    0.017291
O    -2.041444   -1.368814    0.058335    0.112932    0.566929   -0.043517
O     0.393949    2.478247   -0.194845    0.261946   -0.427175    0.043223
H     2.308617   -1.598423    0.195226    0.533047    0.153898    0.005490
H    -1.625843    1.043584   -0.132009   -0.705749   -0.354186    0.014649
H     2.579572    0.863274    0.000136   -0.787591    0.808034   -0.089325
11
* Frequency(11)  563.2950
C     1.547069    0.397347    0.009721   -0.375746   -0.061083   -0.006644
C     1.458758   -0.966558    0.119836    0.416976   -0.012069    0.013314
N     0.277518   -1.617104    0.140938    0.317821    0.065345    0.003126
C    -0.869213   -0.872802    0.048609    0.273529    0.104987   -0.001919
N    -0.814953    0.513473   -0.065245   -0.463629    0.039718   -0.016712
C     0.363269    1.198413   -0.089214   -0.563478   -0.391517    0.017291
O    -2.028609   -1.304385    0.053390    0.112932    0.566929   -0.043517
O     0.423717    2.429701   -0.189933    0.261946   -0.427175    0.043223
H     2.369195   -1.580933    0.195850    0.533047    0.153898    0.005490
H    -1.706048    1.003333   -0.130345   -0.705749   -0.354186    0.014649
H     2.490067    0.955103   -0.010015   -0.787591    0.808034   -0.089325
11
* Frequency(11)  563.2950
C     1.508994    0.391157    0.009048   -0.375746   -0.061083   -0.006644
C     1.501010   -0.967781    0.121185    0.416976   -0.012069    0.013314
N     0.309722   -1.610482    0.141254    0.317821    0.065345    0.003126
C    -0.841496   -0.862164    0.048414    0.273529    0.104987   -0.001919
N    -0.861933    0.517497   -0.066939   -0.463629    0.039718   -0.016712
C     0.306172    1.158741   -0.087462   -0.563478   -0.391517    0.017291
O    -2.017166   -1.246939    0.048980    0.112932    0.566929   -0.043517
O     0.450260    2.386415   -0.185553    0.261946   -0.427175    0.043223
H     2.423209   -1.565338    0.196406    0.533047    0.153898    0.005490
H    -1.777561    0.967443   -0.128860   -0.705749   -0.354186    0.014649
H     2.410261    1.036981   -0.019066   -0.787591    0.808034   -0.089325
11
* Frequency(11)  563.2950
C     1.479674    0.386391    0.008529   -0.375746   -0.061083   -0.006644
C     1.533548   -0.968723    0.122224    0.416976   -0.012069    0.013314
N     0.334523   -1.605383    0.141498    0.317821    0.065345    0.003126
C    -0.820152   -0.853972    0.048265    0.273529    0.104987   -0.001919
N    -0.898112    0.520597   -0.068243   -0.463629    0.039718   -0.016712
C     0.262202    1.128189   -0.086112   -0.563478   -0.391517    0.017291
O    -2.008354   -1.202699    0.045584    0.112932    0.566929   -0.043517
O     0.470701    2.353081   -0.182180    0.261946   -0.427175    0.043223
H     2.464804   -1.553329    0.196834    0.533047    0.153898    0.005490
H    -1.832633    0.939805   -0.127717   -0.705749   -0.354186    0.014649
H     2.348802    1.100035   -0.026037   -0.787591    0.808034   -0.089325
11
* Frequency(11)  563.2950
C     1.462283    0.383564    0.008222   -0.375746   -0.061083   -0.006644
C     1.552846   -0.969281    0.122840    0.416976   -0.012069    0.013314
N     0.349233   -1.602359    0.141643    0.317821    0.065345    0.003126
C    -0.807492   -0.849113    0.048176    0.273529    0.104987   -0.001919
N    -0.919569    0.522435   -0.069016   -0.463629    0.039718   -0.016712
C     0.236123    1.110069   -0.085312   -0.563478   -0.391517    0.017291
O    -2.003127   -1.176460    0.043570    0.112932    0.566929   -0.043517
O     0.482824    2.333311   -0.180180    0.261946   -0.427175    0.043223
H     2.489475   -1.546207    0.197088    0.533047    0.153898    0.005490
H    -1.865297    0.923413   -0.127039   -0.705749   -0.354186    0.014649
H     2.312351    1.137432   -0.030171   -0.787591    0.808034   -0.089325
11
* Frequency(11)  563.2950
C     1.458708    0.382983    0.008158   -0.375746   -0.061083   -0.006644
C     1.556813   -0.969396    0.122967    0.416976   -0.012069    0.013314
N     0.352256   -1.601737    0.141673    0.317821    0.065345    0.003126
C    -0.804890   -0.848114    0.048158    0.273529    0.104987   -0.001919
N    -0.923980    0.522813   -0.069175   -0.463629    0.039718   -0.016712
C     0.230762    1.106344   -0.085148   -0.563478   -0.391517    0.017291
O    -2.002052   -1.171066    0.043156    0.112932    0.566929   -0.043517
O     0.485317    2.329246   -0.179768    0.261946   -0.427175    0.043223
H     2.494546   -1.544742    0.197141    0.533047    0.153898    0.005490
H    -1.872011    0.920043   -0.126900   -0.705749   -0.354186    0.014649
H     2.304857    1.145120   -0.031021   -0.787591    0.808034   -0.089325
11
* Frequency(11)  563.2950
C     1.469336    0.384710    0.008346   -0.375746   -0.061083   -0.006644
C     1.545020   -0.969055    0.122590    0.416976   -0.012069    0.013314
N     0.343267   -1.603585    0.141584    0.317821    0.065345    0.003126
C    -0.812626   -0.851083    0.048212    0.273529    0.104987   -0.001919
N    -0.910867    0.521689   -0.068703   -0.463629    0.039718   -0.016712
C     0.246699    1.117418   -0.085637   -0.563478   -0.391517    0.017291
O    -2.005247   -1.187101    0.044387    0.112932    0.566929   -0.043517
O     0.477908    2.341328   -0.180991    0.261946   -0.427175    0.043223
H     2.479470   -1.549095    0.196985    0.533047    0.153898    0.005490
H    -1.852050    0.930060   -0.127314   -0.705749   -0.354186    0.014649
H     2.327133    1.122266   -0.028494   -0.787591    0.808034   -0.089325
11
* Frequency(11)  563.2950
C     1.493014    0.388560    0.008765   -0.375746   -0.061083   -0.006644
C     1.518743   -0.968294    0.121751    0.416976   -0.012069    0.013314
N     0.323239   -1.607703    0.141387    0.317821    0.065345    0.003126
C    -0.829863   -0.857699    0.048333    0.273529    0.104987   -0.001919
N    -0.881650    0.519186   -0.067650   -0.463629    0.039718   -0.016712
C     0.282208    1.142090   -0.086726   -0.563478   -0.391517    0.017291
O    -2.012363   -1.222828    0.047129    0.112932    0.566929   -0.043517
O     0.461401    2.368248   -0.183715    0.261946   -0.427175    0.043223
H     2.445879   -1.558793    0.196639    0.533047    0.153898    0.005490
H    -1.807576    0.952380   -0.128237   -0.705749   -0.354186    0.014649
H     2.376765    1.071346   -0.022865   -0.787591    0.808034   -0.089325
11
* Frequency(11)  563.2950
C     1.527178    0.394113    0.009369   -0.375746   -0.061083   -0.006644
C     1.480831   -0.967197    0.120541    0.416976   -0.012069    0.013314
N     0.294342   -1.613644    0.141103    0.317821    0.065345    0.003126
C    -0.854733   -0.867245    0.048507    0.273529    0.104987   -0.001919
N    -0.839496    0.515575   -0.066130   -0.463629    0.039718   -0.016712
C     0.333441    1.177687   -0.088298   -0.563478   -0.391517    0.017291
O    -2.022631   -1.274374    0.051086    0.112932    0.566929   -0.043517
O     0.437584    2.407087   -0.187645    0.261946   -0.427175    0.043223
H     2.397413   -1.572786    0.196140    0.533047    0.153898    0.005490
H    -1.743408    0.984584   -0.129569   -0.705749   -0.354186    0.014649
H     2.448374    0.997878   -0.014744   -0.787591    0.808034   -0.089325
11
* Frequency(11)  563.2950
C     1.568124    0.400770    0.010093   -0.375746   -0.061083   -0.006644
C     1.435392   -0.965882    0.119090    0.416976   -0.012069    0.013314
N     0.259708   -1.620765    0.140762    0.317821    0.065345    0.003126
C    -0.884540   -0.878685    0.048716    0.273529    0.104987   -0.001919
N    -0.788973    0.511247   -0.064309   -0.463629    0.039718   -0.016712
C     0.394845    1.220352   -0.090183   -0.563478   -0.391517    0.017291
O    -2.034938   -1.336154    0.055828    0.112932    0.566929   -0.043517
O     0.409039    2.453638   -0.192355    0.261946   -0.427175    0.043223
H     2.339325   -1.589557    0.195542    0.533047    0.153898    0.005490
H    -1.666500    1.023180   -0.131166   -0.705749   -0.354186    0.014649
H     2.534201    0.909823   -0.005010   -0.787591    0.808034   -0.089325
11
* Frequency(11)  563.2950
C     1.611416    0.407808    0.010859   -0.375746   -0.061083   -0.006644
C     1.387349   -0.964491    0.117556    0.416976   -0.012069    0.013314
N     0.223090   -1.628294    0.140402    0.317821    0.065345    0.003126
C    -0.916055   -0.890782    0.048937    0.273529    0.104987   -0.001919
N    -0.735556    0.506671   -0.062383   -0.463629    0.039718   -0.016712
C     0.459767    1.265462   -0.092175   -0.563478   -0.391517    0.017291
O    -2.047949   -1.401474    0.060842    0.112932    0.566929   -0.043517
O     0.378858    2.502855   -0.197335    0.261946   -0.427175    0.043223
H     2.277910   -1.607288    0.194910    0.533047    0.153898    0.005490
H    -1.585186    1.063988   -0.132853   -0.705749   -0.354186    0.014649
H     2.624944    0.816725    0.005282   -0.787591    0.808034   -0.089325
11
* Frequency(11)  563.2950
C     1.652362    0.414464    0.011583   -0.375746   -0.061083   -0.006644
C     1.341910   -0.963176    0.116105    0.416976   -0.012069    0.013314
N     0.188456   -1.635415    0.140061    0.317821    0.065345    0.003126
C    -0.945863   -0.902222    0.049146    0.273529    0.104987   -0.001919
N    -0.685032    0.502342   -0.060562   -0.463629    0.039718   -0.016712
C     0.521171    1.308127   -0.094059   -0.563478   -0.391517    0.017291
O    -2.060256   -1.463254    0.065584    0.112932    0.566929   -0.043517
O     0.350313    2.549406   -0.202045    0.261946   -0.427175    0.043223
H     2.219822   -1.624059    0.194311    0.533047    0.153898    0.005490
H    -1.508278    1.102585   -0.134450   -0.705749   -0.354186    0.014649
H     2.710771    0.728671    0.015016   -0.787591    0.808034   -0.089325
11
* Frequency(11)  563.2950
C     1.686526    0.420018    0.012187   -0.375746   -0.061083   -0.006644
C     1.303998   -0.962079    0.114895    0.416976   -0.012069    0.013314
N     0.159559   -1.641356    0.139777    0.317821    0.065345    0.003126
C    -0.970733   -0.911768    0.049321    0.273529    0.104987   -0.001919
N    -0.642878    0.498731   -0.059043   -0.463629    0.039718   -0.016712
C     0.572403    1.343724   -0.095631   -0.563478   -0.391517    0.017291
O    -2.070524   -1.514800    0.069541    0.112932    0.566929   -0.043517
O     0.326497    2.588246   -0.205975    0.261946   -0.427175    0.043223
H     2.171356   -1.638052    0.193812    0.533047    0.153898    0.005490
H    -1.444110    1.134789   -0.135782   -0.705749   -0.354186    0.014649
H     2.782380    0.655203    0.023138   -0.787591    0.808034   -0.089325
11
* Frequency(11)  563.2950
C     1.710204    0.423867    0.012605   -0.375746   -0.061083   -0.006644
C     1.277721   -0.961318    0.114056    0.416976   -0.012069    0.013314
N     0.139531   -1.645474    0.139580    0.317821    0.065345    0.003126
C    -0.987970   -0.918384    0.049442    0.273529    0.104987   -0.001919
N    -0.613662    0.496228   -0.057989   -0.463629    0.039718   -0.016712
C     0.607912    1.368396   -0.096721   -0.563478   -0.391517    0.017291
O    -2.077641   -1.550526    0.072283    0.112932    0.566929   -0.043517
O     0.309989    2.615165   -0.208699    0.261946   -0.427175    0.043223
H     2.137765   -1.647750    0.193466    0.533047    0.153898    0.005490
H    -1.399636    1.157108   -0.136705   -0.705749   -0.354186    0.014649
H     2.832012    0.604283    0.028767   -0.787591    0.808034   -0.089325
11
* Frequency(11)  563.2950
C     1.720832    0.425595    0.012793   -0.375746   -0.061083   -0.006644
C     1.265927   -0.960977    0.113679    0.416976   -0.012069    0.013314
N     0.130541   -1.647322    0.139492    0.317821    0.065345    0.003126
C    -0.995706   -0.921353    0.049496    0.273529    0.104987   -0.001919
N    -0.600548    0.495105   -0.057517   -0.463629    0.039718   -0.016712
C     0.623850    1.379470   -0.097210   -0.563478   -0.391517    0.017291
O    -2.080835   -1.566561    0.073514    0.112932    0.566929   -0.043517
O     0.302581    2.627247   -0.209921    0.261946   -0.427175    0.043223
H     2.122688   -1.652103    0.193311    0.533047    0.153898    0.005490
H    -1.379675    1.167126   -0.137119   -0.705749   -0.354186    0.014649
H     2.854288    0.581428    0.031293   -0.787591    0.808034   -0.089325
11
* Frequency(11)  563.2950
C     1.717257    0.425014    0.012730   -0.375746   -0.061083   -0.006644
C     1.269895   -0.961091    0.113806    0.416976   -0.012069    0.013314
N     0.133565   -1.646701    0.139521    0.317821    0.065345    0.003126
C    -0.993104   -0.920354    0.049478    0.273529    0.104987   -0.001919
N    -0.604960    0.495483   -0.057676   -0.463629    0.039718   -0.016712
C     0.618488    1.375745   -0.097045   -0.563478   -0.391517    0.017291
O    -2.079760   -1.561167    0.073100    0.112932    0.566929   -0.043517
O     0.305073    2.623183   -0.209510    0.261946   -0.427175    0.043223
H     2.127760   -1.650639    0.193363    0.533047    0.153898    0.005490
H    -1.386389    1.163756   -0.136980   -0.705749   -0.354186    0.014649
H     2.846794    0.589116    0.030443   -0.787591    0.808034   -0.089325
11
* Frequency(11)  563.2950
C     1.699867    0.422187    0.012423   -0.375746   -0.061083   -0.006644
C     1.289193   -0.961650    0.114422    0.416976   -0.012069    0.013314
N     0.148275   -1.643676    0.139666    0.317821    0.065345    0.003126
C    -0.980444   -0.915495    0.049389    0.273529    0.104987   -0.001919
N    -0.626417    0.497321   -0.058449   -0.463629    0.039718   -0.016712
C     0.592410    1.357625   -0.096245   -0.563478   -0.391517    0.017291
O    -2.074534   -1.534929    0.071086    0.112932    0.566929   -0.043517
O     0.317196    2.603413   -0.207509    0.261946   -0.427175    0.043223
H     2.152430   -1.643516    0.193617    0.533047    0.153898    0.005490
H    -1.419053    1.147364   -0.136302   -0.705749   -0.354186    0.014649
H     2.810343    0.626514    0.026309   -0.787591    0.808034   -0.089325
11
* Frequency(11)  563.2950
C     1.670546    0.417420    0.011904   -0.375746   -0.061083   -0.006644
C     1.321731   -0.962592    0.115461    0.416976   -0.012069    0.013314
N     0.173075   -1.638577    0.139910    0.317821    0.065345    0.003126
C    -0.959100   -0.907303    0.049239    0.273529    0.104987   -0.001919
N    -0.662596    0.500420   -0.059753   -0.463629    0.039718   -0.016712
C     0.548439    1.327073   -0.094896   -0.563478   -0.391517    0.017291
O    -2.065721   -1.490689    0.067690    0.112932    0.566929   -0.043517
O     0.337637    2.570078   -0.204137    0.261946   -0.427175    0.043223
H     2.194026   -1.631507    0.194046    0.533047    0.153898    0.005490
H    -1.474125    1.119725   -0.135159   -0.705749   -0.354186    0.014649
H     2.748884    0.689568    0.019339   -0.787591    0.808034   -0.089325
11
* Frequency(11)  563.2950
C     1.632472    0.411231    0.011231   -0.375746   -0.061083   -0.006644
C     1.363983   -0.963815    0.116810    0.416976   -0.012069    0.013314
N     0.205280   -1.631956    0.140227    0.317821    0.065345    0.003126
C    -0.931383   -0.896665    0.049045    0.273529    0.104987   -0.001919
N    -0.709575    0.504445   -0.061447   -0.463629    0.039718   -0.016712
C     0.491342    1.287401   -0.093144   -0.563478   -0.391517    0.017291
O    -2.054278   -1.433242    0.063280    0.112932    0.566929   -0.043517
O     0.364180    2.526793   -0.199757    0.261946   -0.427175    0.043223
H     2.248039   -1.615912    0.194602    0.533047    0.153898    0.005490
H    -1.545638    1.083836   -0.133674   -0.705749   -0.354186    0.014649
H     2.669078    0.771445    0.010288   -0.787591    0.808034   -0.089325
11
* Frequency(11)  563.2950
C     1.589770    0.404289    0.010476   -0.375746   -0.061083   -0.006644
C     1.411370   -0.965186    0.118323    0.416976   -0.012069    0.013314
N     0.241399   -1.624530    0.140582    0.317821    0.065345    0.003126
C    -0.900298   -0.884733    0.048827    0.273529    0.104987   -0.001919
N    -0.762264    0.508959   -0.063346   -0.463629    0.039718   -0.016712
C     0.427306    1.242907   -0.091179   -0.563478   -0.391517    0.017291
O    -2.041444   -1.368814    0.058335    0.112932    0.566929   -0.043517
O     0.393949    2.478247   -0.194845    0.261946   -0.427175    0.043223
H     2.308617   -1.598423    0.195226    0.533047    0.153898    0.005490
H    -1.625843    1.043584   -0.132009   -0.705749   -0.354186    0.014649
H     2.579572    0.863274    0.000136   -0.787591    0.808034   -0.089325
