11
* (null), Energy   -1000.0000000
C     1.356566    0.572472   -0.019574    0.010158   -0.001102    0.000355
C     1.179217   -0.796685    0.088575   -0.135230    0.106033   -0.012452
N     0.008210   -1.454494    0.110838   -0.001740   -0.001592    0.000074
C    -1.131376   -0.714764    0.018532    0.005403   -0.000266    0.000165
N    -0.995238    0.677642   -0.092617   -0.000393    0.000233   -0.000027
C     0.194158    1.409660   -0.120689    0.001570   -0.001582    0.000170
O    -2.273001   -1.200862    0.028059   -0.001442   -0.000405   -0.000004
O     0.161758    2.645985   -0.224814   -0.000323    0.001091   -0.000095
H     2.075560   -1.430341    0.165515    1.606228   -1.160245    0.139987
H    -1.858608    1.212888   -0.161920    0.002850    0.000251    0.000091
H     2.345944    1.032379   -0.030255   -0.144174   -0.060305    0.000986
11
* Frequency(30) 3101.5393
C     1.357721    0.572346   -0.019533    0.010158   -0.001102    0.000355
C     1.163849   -0.784635    0.087160   -0.135230    0.106033   -0.012452
N     0.008012   -1.454675    0.110846   -0.001740   -0.001592    0.000074
C    -1.130762   -0.714794    0.018550    0.005403   -0.000266    0.000165
N    -0.995283    0.677669   -0.092620   -0.000393    0.000233   -0.000027
C     0.194336    1.409480   -0.120669    0.001570   -0.001582    0.000170
O    -2.273165   -1.200908    0.028058   -0.001442   -0.000405   -0.000004
O     0.161721    2.646109   -0.224825   -0.000323    0.001091   -0.000095
H     2.258099   -1.562197    0.181423    1.606228   -1.160245    0.139987
H    -1.858284    1.212916   -0.161910    0.002850    0.000251    0.000091
H     2.329560    1.025526   -0.030143   -0.144174   -0.060305    0.000986
11
* Frequency(30) 3101.5393
C     1.358750    0.572235   -0.019497    0.010158   -0.001102    0.000355
C     1.150146   -0.773890    0.085898   -0.135230    0.106033   -0.012452
N     0.007836   -1.454836    0.110854   -0.001740   -0.001592    0.000074
C    -1.130214   -0.714821    0.018567    0.005403   -0.000266    0.000165
N    -0.995323    0.677693   -0.092623   -0.000393    0.000233   -0.000027
C     0.194495    1.409319   -0.120652    0.001570   -0.001582    0.000170
O    -2.273311   -1.200950    0.028058   -0.001442   -0.000405   -0.000004
O     0.161689    2.646220   -0.224834   -0.000323    0.001091   -0.000095
H     2.420858   -1.679764    0.195608    1.606228   -1.160245    0.139987
H    -1.857995    1.212942   -0.161901    0.002850    0.000251    0.000091
H     2.314951    1.019415   -0.030043   -0.144174   -0.060305    0.000986
11
* Frequency(30) 3101.5393
C     1.359543    0.572149   -0.019470    0.010158   -0.001102    0.000355
C     1.139594   -0.765616    0.084927   -0.135230    0.106033   -0.012452
N     0.007700   -1.454961    0.110860   -0.001740   -0.001592    0.000074
C    -1.129792   -0.714842    0.018580    0.005403   -0.000266    0.000165
N    -0.995354    0.677711   -0.092625   -0.000393    0.000233   -0.000027
C     0.194618    1.409196   -0.120639    0.001570   -0.001582    0.000170
O    -2.273424   -1.200981    0.028058   -0.001442   -0.000405   -0.000004
O     0.161663    2.646305   -0.224842   -0.000323    0.001091   -0.000095
H     2.546198   -1.770302    0.206532    1.606228   -1.160245    0.139987
H    -1.857773    1.212961   -0.161894    0.002850    0.000251    0.000091
H     2.303700    1.014709   -0.029966   -0.144174   -0.060305    0.000986
11
* Frequency(30) 3101.5393
C     1.360013    0.572098   -0.019453    0.010158   -0.001102    0.000355
C     1.133335   -0.760709    0.084351   -0.135230    0.106033   -0.012452
N     0.007620   -1.455034    0.110863   -0.001740   -0.001592    0.000074
C    -1.129542   -0.714855    0.018588    0.005403   -0.000266    0.000165
N    -0.995372    0.677722   -0.092626   -0.000393    0.000233   -0.000027
C     0.194690    1.409123   -0.120631    0.001570   -0.001582    0.000170
O    -2.273490   -1.201000    0.028057   -0.001442   -0.000405   -0.000004
O     0.161648    2.646356   -0.224846   -0.000323    0.001091   -0.000095
H     2.620537   -1.824000    0.213011    1.606228   -1.160245    0.139987
H    -1.857641    1.212973   -0.161889    0.002850    0.000251    0.000091
H     2.297027    1.011918   -0.029920   -0.144174   -0.060305    0.000986
11
* Frequency(30) 3101.5393
C     1.360110    0.572087   -0.019450    0.010158   -0.001102    0.000355
C     1.132048   -0.759700    0.084232   -0.135230    0.106033   -0.012452
N     0.007603   -1.455049    0.110864   -0.001740   -0.001592    0.000074
C    -1.129491   -0.714857    0.018589    0.005403   -0.000266    0.000165
N    -0.995376    0.677724   -0.092626   -0.000393    0.000233   -0.000027
C     0.194705    1.409108   -0.120629    0.001570   -0.001582    0.000170
O    -2.273504   -1.201004    0.028057   -0.001442   -0.000405   -0.000004
O     0.161645    2.646366   -0.224847   -0.000323    0.001091   -0.000095
H     2.635819   -1.835040    0.214342    1.606228   -1.160245    0.139987
H    -1.857614    1.212975   -0.161888    0.002850    0.000251    0.000091
H     2.295656    1.011345   -0.029911   -0.144174   -0.060305    0.000986
11
* Frequency(30) 3101.5393
C     1.359822    0.572118   -0.019460    0.010158   -0.001102    0.000355
C     1.135873   -0.762699    0.084584   -0.135230    0.106033   -0.012452
N     0.007652   -1.455004    0.110862   -0.001740   -0.001592    0.000074
C    -1.129644   -0.714850    0.018585    0.005403   -0.000266    0.000165
N    -0.995364    0.677717   -0.092626   -0.000393    0.000233   -0.000027
C     0.194661    1.409152   -0.120634    0.001570   -0.001582    0.000170
O    -2.273463   -1.200992    0.028057   -0.001442   -0.000405   -0.000004
O     0.161654    2.646335   -0.224844   -0.000323    0.001091   -0.000095
H     2.590389   -1.802223    0.210383    1.606228   -1.160245    0.139987
H    -1.857695    1.212968   -0.161891    0.002850    0.000251    0.000091
H     2.299733    1.013050   -0.029939   -0.144174   -0.060305    0.000986
11
* Frequency(30) 3101.5393
C     1.359182    0.572188   -0.019482    0.010158   -0.001102    0.000355
C     1.144395   -0.769381    0.085369   -0.135230    0.106033   -0.012452
N     0.007762   -1.454904    0.110857   -0.001740   -0.001592    0.000074
C    -1.129984   -0.714833    0.018574    0.005403   -0.000266    0.000165
N    -0.995340    0.677703   -0.092624   -0.000393    0.000233   -0.000027
C     0.194562    1.409252   -0.120645    0.001570   -0.001582    0.000170
O    -2.273372   -1.200967    0.028058   -0.001442   -0.000405   -0.000004
O     0.161675    2.646266   -0.224838   -0.000323    0.001091   -0.000095
H     2.489169   -1.729108    0.201562    1.606228   -1.160245    0.139987
H    -1.857874    1.212952   -0.161897    0.002850    0.000251    0.000091
H     2.308819    1.016850   -0.030001   -0.144174   -0.060305    0.000986
11
* Frequency(30) 3101.5393
C     1.358259    0.572288   -0.019515    0.010158   -0.001102    0.000355
C     1.156690   -0.779021    0.086501   -0.135230    0.106033   -0.012452
N     0.007920   -1.454759    0.110850   -0.001740   -0.001592    0.000074
C    -1.130476   -0.714809    0.018559    0.005403   -0.000266    0.000165
N    -0.995304    0.677681   -0.092621   -0.000393    0.000233   -0.000027
C     0.194419    1.409396   -0.120660    0.001570   -0.001582    0.000170
O    -2.273241   -1.200930    0.028058   -0.001442   -0.000405   -0.000004
O     0.161704    2.646167   -0.224830   -0.000323    0.001091   -0.000095
H     2.343128   -1.623616    0.188834    1.606228   -1.160245    0.139987
H    -1.858133    1.212929   -0.161905    0.002850    0.000251    0.000091
H     2.321928    1.022334   -0.030090   -0.144174   -0.060305    0.000986
11
* Frequency(30) 3101.5393
C     1.357152    0.572408   -0.019553    0.010158   -0.001102    0.000355
C     1.171427   -0.790576    0.087858   -0.135230    0.106033   -0.012452
N     0.008110   -1.454586    0.110842   -0.001740   -0.001592    0.000074
C    -1.131064   -0.714780    0.018541    0.005403   -0.000266    0.000165
N    -0.995261    0.677656   -0.092618   -0.000393    0.000233   -0.000027
C     0.194248    1.409568   -0.120679    0.001570   -0.001582    0.000170
O    -2.273084   -1.200886    0.028059   -0.001442   -0.000405   -0.000004
O     0.161740    2.646048   -0.224819   -0.000323    0.001091   -0.000095
H     2.168091   -1.497180    0.173579    1.606228   -1.160245    0.139987
H    -1.858444    1.212902   -0.161915    0.002850    0.000251    0.000091
H     2.337639    1.028905   -0.030198   -0.144174   -0.060305    0.000986
11
* Frequency(30) 3101.5393
C     1.355981    0.572535   -0.019594    0.010158   -0.001102    0.000355
C     1.187007   -0.802793    0.089293   -0.135230    0.106033   -0.012452
N     0.008310   -1.454403    0.110834   -0.001740   -0.001592    0.000074
C    -1.131687   -0.714749    0.018522    0.005403   -0.000266    0.000165
N    -0.995216    0.677629   -0.092615   -0.000393    0.000233   -0.000027
C     0.194067    1.409751   -0.120699    0.001570   -0.001582    0.000170
O    -2.272918   -1.200839    0.028059   -0.001442   -0.000405   -0.000004
O     0.161777    2.645923   -0.224809   -0.000323    0.001091   -0.000095
H     1.983028   -1.363501    0.157450    1.606228   -1.160245    0.139987
H    -1.858772    1.212873   -0.161925    0.002850    0.000251    0.000091
H     2.354250    1.035853   -0.030311   -0.144174   -0.060305    0.000986
11
* Frequency(30) 3101.5393
C     1.354874    0.572655   -0.019633    0.010158   -0.001102    0.000355
C     1.201744   -0.814348    0.090649   -0.135230    0.106033   -0.012452
N     0.008500   -1.454229    0.110826   -0.001740   -0.001592    0.000074
C    -1.132276   -0.714720    0.018504    0.005403   -0.000266    0.000165
N    -0.995173    0.677604   -0.092612   -0.000393    0.000233   -0.000027
C     0.193896    1.409923   -0.120717    0.001570   -0.001582    0.000170
O    -2.272761   -1.200795    0.028060   -0.001442   -0.000405   -0.000004
O     0.161812    2.645804   -0.224798   -0.000323    0.001091   -0.000095
H     1.807991   -1.237065    0.142195    1.606228   -1.160245    0.139987
H    -1.859083    1.212846   -0.161935    0.002850    0.000251    0.000091
H     2.369961    1.042425   -0.030419   -0.144174   -0.060305    0.000986
11
* Frequency(30) 3101.5393
C     1.353951    0.572756   -0.019665    0.010158   -0.001102    0.000355
C     1.214039   -0.823989    0.091782   -0.135230    0.106033   -0.012452
N     0.008658   -1.454084    0.110819   -0.001740   -0.001592    0.000074
C    -1.132767   -0.714696    0.018489    0.005403   -0.000266    0.000165
N    -0.995137    0.677582   -0.092610   -0.000393    0.000233   -0.000027
C     0.193753    1.410067   -0.120733    0.001570   -0.001582    0.000170
O    -2.272630   -1.200758    0.028060   -0.001442   -0.000405   -0.000004
O     0.161841    2.645705   -0.224789   -0.000323    0.001091   -0.000095
H     1.661950   -1.131574    0.129468    1.606228   -1.160245    0.139987
H    -1.859342    1.212823   -0.161944    0.002850    0.000251    0.000091
H     2.383070    1.047908   -0.030509   -0.144174   -0.060305    0.000986
11
* Frequency(30) 3101.5393
C     1.353311    0.572825   -0.019687    0.010158   -0.001102    0.000355
C     1.222561   -0.830670    0.092566   -0.135230    0.106033   -0.012452
N     0.008768   -1.453984    0.110814   -0.001740   -0.001592    0.000074
C    -1.133108   -0.714679    0.018479    0.005403   -0.000266    0.000165
N    -0.995112    0.677568   -0.092608   -0.000393    0.000233   -0.000027
C     0.193654    1.410167   -0.120744    0.001570   -0.001582    0.000170
O    -2.272539   -1.200733    0.028060   -0.001442   -0.000405   -0.000004
O     0.161862    2.645636   -0.224783   -0.000323    0.001091   -0.000095
H     1.560730   -1.058458    0.120646    1.606228   -1.160245    0.139987
H    -1.859522    1.212807   -0.161949    0.002850    0.000251    0.000091
H     2.392155    1.051708   -0.030571   -0.144174   -0.060305    0.000986
11
* Frequency(30) 3101.5393
C     1.353023    0.572856   -0.019697    0.010158   -0.001102    0.000355
C     1.226386   -0.833669    0.092918   -0.135230    0.106033   -0.012452
N     0.008817   -1.453939    0.110812   -0.001740   -0.001592    0.000074
C    -1.133260   -0.714671    0.018474    0.005403   -0.000266    0.000165
N    -0.995101    0.677561   -0.092607   -0.000393    0.000233   -0.000027
C     0.193610    1.410212   -0.120748    0.001570   -0.001582    0.000170
O    -2.272498   -1.200721    0.028060   -0.001442   -0.000405   -0.000004
O     0.161871    2.645605   -0.224781   -0.000323    0.001091   -0.000095
H     1.515300   -1.025642    0.116687    1.606228   -1.160245    0.139987
H    -1.859602    1.212800   -0.161952    0.002850    0.000251    0.000091
H     2.396233    1.053414   -0.030599   -0.144174   -0.060305    0.000986
11
* Frequency(30) 3101.5393
C     1.353120    0.572846   -0.019694    0.010158   -0.001102    0.000355
C     1.225099   -0.832661    0.092800   -0.135230    0.106033   -0.012452
N     0.008800   -1.453954    0.110813   -0.001740   -0.001592    0.000074
C    -1.133209   -0.714674    0.018476    0.005403   -0.000266    0.000165
N    -0.995105    0.677563   -0.092608   -0.000393    0.000233   -0.000027
C     0.193625    1.410196   -0.120747    0.001570   -0.001582    0.000170
O    -2.272512   -1.200725    0.028060   -0.001442   -0.000405   -0.000004
O     0.161868    2.645615   -0.224782   -0.000323    0.001091   -0.000095
H     1.530582   -1.036681    0.118018    1.606228   -1.160245    0.139987
H    -1.859575    1.212803   -0.161951    0.002850    0.000251    0.000091
H     2.394861    1.052840   -0.030589   -0.144174   -0.060305    0.000986
11
* Frequency(30) 3101.5393
C     1.353590    0.572795   -0.019678    0.010158   -0.001102    0.000355
C     1.218841   -0.827753    0.092224   -0.135230    0.106033   -0.012452
N     0.008720   -1.454028    0.110816   -0.001740   -0.001592    0.000074
C    -1.132959   -0.714686    0.018483    0.005403   -0.000266    0.000165
N    -0.995123    0.677574   -0.092609   -0.000393    0.000233   -0.000027
C     0.193698    1.410123   -0.120739    0.001570   -0.001582    0.000170
O    -2.272578   -1.200744    0.028060   -0.001442   -0.000405   -0.000004
O     0.161853    2.645666   -0.224786   -0.000323    0.001091   -0.000095
H     1.604921   -1.090379    0.124497    1.606228   -1.160245    0.139987
H    -1.859443    1.212814   -0.161947    0.002850    0.000251    0.000091
H     2.388189    1.050049   -0.030544   -0.144174   -0.060305    0.000986
11
* Frequency(30) 3101.5393
C     1.354383    0.572709   -0.019650    0.010158   -0.001102    0.000355
C     1.208288   -0.819479    0.091252   -0.135230    0.106033   -0.012452
N     0.008584   -1.454152    0.110822   -0.001740   -0.001592    0.000074
C    -1.132537   -0.714707    0.018496    0.005403   -0.000266    0.000165
N    -0.995154    0.677592   -0.092611   -0.000393    0.000233   -0.000027
C     0.193820    1.410000   -0.120726    0.001570   -0.001582    0.000170
O    -2.272691   -1.200775    0.028060   -0.001442   -0.000405   -0.000004
O     0.161828    2.645751   -0.224794   -0.000323    0.001091   -0.000095
H     1.730261   -1.180918    0.135421    1.606228   -1.160245    0.139987
H    -1.859221    1.212834   -0.161940    0.002850    0.000251    0.000091
H     2.376938    1.045343   -0.030467   -0.144174   -0.060305    0.000986
11
* Frequency(30) 3101.5393
C     1.355412    0.572597   -0.019614    0.010158   -0.001102    0.000355
C     1.194585   -0.808735    0.089990   -0.135230    0.106033   -0.012452
N     0.008408   -1.454313    0.110830   -0.001740   -0.001592    0.000074
C    -1.131990   -0.714734    0.018513    0.005403   -0.000266    0.000165
N    -0.995194    0.677616   -0.092614   -0.000393    0.000233   -0.000027
C     0.193979    1.409839   -0.120708    0.001570   -0.001582    0.000170
O    -2.272837   -1.200816    0.028059   -0.001442   -0.000405   -0.000004
O     0.161795    2.645861   -0.224803   -0.000323    0.001091   -0.000095
H     1.893020   -1.298485    0.149606    1.606228   -1.160245    0.139987
H    -1.858932    1.212859   -0.161931    0.002850    0.000251    0.000091
H     2.362329    1.039233   -0.030367   -0.144174   -0.060305    0.000986
11
* Frequency(30) 3101.5393
C     1.356566    0.572472   -0.019574    0.010158   -0.001102    0.000355
C     1.179217   -0.796685    0.088575   -0.135230    0.106033   -0.012452
N     0.008210   -1.454494    0.110838   -0.001740   -0.001592    0.000074
C    -1.131376   -0.714764    0.018532    0.005403   -0.000266    0.000165
N    -0.995238    0.677642   -0.092617   -0.000393    0.000233   -0.000027
C     0.194158    1.409660   -0.120689    0.001570   -0.001582    0.000170
O    -2.273001   -1.200862    0.028059   -0.001442   -0.000405   -0.000004
O     0.161758    2.645985   -0.224814   -0.000323    0.001091   -0.000095
H     2.075560   -1.430341    0.165515    1.606228   -1.160245    0.139987
H    -1.858608    1.212888   -0.161920    0.002850    0.000251    0.000091
H     2.345944    1.032379   -0.030255   -0.144174   -0.060305    0.000986
