11
* (null), Energy   -1000.0000000
C     1.356566    0.572472   -0.019574    0.021875   -0.051431   -0.531801
C     1.179217   -0.796685    0.088575    0.015765    0.009019    0.292274
N     0.008210   -1.454494    0.110838    0.023412   -0.044526   -0.540203
C    -1.131376   -0.714764    0.018532   -0.042194    0.101416    1.278185
N    -0.995238    0.677642   -0.092617    0.005472   -0.039624   -0.545474
C     0.194158    1.409660   -0.120689   -0.024433    0.077152    0.831043
O    -2.273001   -1.200862    0.028059   -0.006054   -0.028816   -0.315763
O     0.161758    2.645985   -0.224814    0.003944   -0.005103   -0.214369
H     2.075560   -1.430341    0.165515    0.010318    0.007388    0.352071
H    -1.858608    1.212888   -0.161920   -0.020723    0.028233    0.295317
H     2.345944    1.032379   -0.030255   -0.012084    0.049696    0.574524
11
* Frequency(17)  809.9273
C     1.359052    0.566627   -0.080010    0.021875   -0.051431   -0.531801
C     1.181009   -0.795660    0.121791    0.015765    0.009019    0.292274
N     0.010871   -1.459554    0.049447    0.023412   -0.044526   -0.540203
C    -1.136171   -0.703239    0.163791   -0.042194    0.101416    1.278185
N    -0.994616    0.673139   -0.154607    0.005472   -0.039624   -0.545474
C     0.191381    1.418427   -0.026245   -0.024433    0.077152    0.831043
O    -2.273689   -1.204137   -0.007826   -0.006054   -0.028816   -0.315763
O     0.162206    2.645406   -0.249176    0.003944   -0.005103   -0.214369
H     2.076732   -1.429501    0.205526    0.010318    0.007388    0.352071
H    -1.860963    1.216096   -0.128359   -0.020723    0.028233    0.295317
H     2.344571    1.038027    0.035037   -0.012084    0.049696    0.574524
11
* Frequency(17)  809.9273
C     1.361269    0.561415   -0.133897    0.021875   -0.051431   -0.531801
C     1.182606   -0.794746    0.151407    0.015765    0.009019    0.292274
N     0.013243   -1.464066   -0.005292    0.023412   -0.044526   -0.540203
C    -1.140446   -0.692962    0.293309   -0.042194    0.101416    1.278185
N    -0.994062    0.669124   -0.209880    0.005472   -0.039624   -0.545474
C     0.188905    1.426245    0.057964   -0.024433    0.077152    0.831043
O    -2.274302   -1.207057   -0.039822   -0.006054   -0.028816   -0.315763
O     0.162606    2.644888   -0.270898    0.003944   -0.005103   -0.214369
H     2.077778   -1.428753    0.241201    0.010318    0.007388    0.352071
H    -1.863063    1.218957   -0.098435   -0.020723    0.028233    0.295317
H     2.343347    1.043063    0.093253   -0.012084    0.049696    0.574524
11
* Frequency(17)  809.9273
C     1.362976    0.557402   -0.175396    0.021875   -0.051431   -0.531801
C     1.183836   -0.794042    0.174214    0.015765    0.009019    0.292274
N     0.015070   -1.467541   -0.047446    0.023412   -0.044526   -0.540203
C    -1.143739   -0.685049    0.393050   -0.042194    0.101416    1.278185
N    -0.993635    0.666032   -0.252445    0.005472   -0.039624   -0.545474
C     0.186999    1.432266    0.122814   -0.024433    0.077152    0.831043
O    -2.274775   -1.209306   -0.064462   -0.006054   -0.028816   -0.315763
O     0.162914    2.644490   -0.287626    0.003944   -0.005103   -0.214369
H     2.078583   -1.428176    0.268674    0.010318    0.007388    0.352071
H    -1.864680    1.221160   -0.075390   -0.020723    0.028233    0.295317
H     2.342404    1.046941    0.138086   -0.012084    0.049696    0.574524
11
* Frequency(17)  809.9273
C     1.363988    0.555022   -0.200008    0.021875   -0.051431   -0.531801
C     1.184566   -0.793625    0.187741    0.015765    0.009019    0.292274
N     0.016154   -1.469601   -0.072448    0.023412   -0.044526   -0.540203
C    -1.145692   -0.680355    0.452207   -0.042194    0.101416    1.278185
N    -0.993382    0.664198   -0.277691    0.005472   -0.039624   -0.545474
C     0.185868    1.435836    0.161276   -0.024433    0.077152    0.831043
O    -2.275055   -1.210639   -0.079076   -0.006054   -0.028816   -0.315763
O     0.163096    2.644254   -0.297547    0.003944   -0.005103   -0.214369
H     2.079060   -1.427834    0.284969    0.010318    0.007388    0.352071
H    -1.865639    1.222467   -0.061722   -0.020723    0.028233    0.295317
H     2.341844    1.049241    0.164676   -0.012084    0.049696    0.574524
11
* Frequency(17)  809.9273
C     1.364197    0.554532   -0.205068    0.021875   -0.051431   -0.531801
C     1.184716   -0.793539    0.190522    0.015765    0.009019    0.292274
N     0.016376   -1.470025   -0.077587    0.023412   -0.044526   -0.540203
C    -1.146093   -0.679390    0.464368   -0.042194    0.101416    1.278185
N    -0.993330    0.663821   -0.282881    0.005472   -0.039624   -0.545474
C     0.185635    1.436570    0.169183   -0.024433    0.077152    0.831043
O    -2.275113   -1.210914   -0.082081   -0.006054   -0.028816   -0.315763
O     0.163134    2.644205   -0.299587    0.003944   -0.005103   -0.214369
H     2.079159   -1.427764    0.288318    0.010318    0.007388    0.352071
H    -1.865836    1.222736   -0.058912   -0.020723    0.028233    0.295317
H     2.341729    1.049714    0.170142   -0.012084    0.049696    0.574524
11
* Frequency(17)  809.9273
C     1.363578    0.555987   -0.190027    0.021875   -0.051431   -0.531801
C     1.184270   -0.793794    0.182255    0.015765    0.009019    0.292274
N     0.015714   -1.468766   -0.062308    0.023412   -0.044526   -0.540203
C    -1.144900   -0.682258    0.428216   -0.042194    0.101416    1.278185
N    -0.993484    0.664942   -0.267453    0.005472   -0.039624   -0.545474
C     0.186326    1.434388    0.145678   -0.024433    0.077152    0.831043
O    -2.274941   -1.210099   -0.073150   -0.006054   -0.028816   -0.315763
O     0.163022    2.644350   -0.293524    0.003944   -0.005103   -0.214369
H     2.078867   -1.427973    0.278360    0.010318    0.007388    0.352071
H    -1.865250    1.221937   -0.067265   -0.020723    0.028233    0.295317
H     2.342071    1.048308    0.153892   -0.012084    0.049696    0.574524
11
* Frequency(17)  809.9273
C     1.362199    0.559228   -0.156514    0.021875   -0.051431   -0.531801
C     1.183277   -0.794362    0.163837    0.015765    0.009019    0.292274
N     0.014239   -1.465960   -0.028266    0.023412   -0.044526   -0.540203
C    -1.142241   -0.688649    0.347669   -0.042194    0.101416    1.278185
N    -0.993829    0.667439   -0.233078    0.005472   -0.039624   -0.545474
C     0.187866    1.429526    0.093308   -0.024433    0.077152    0.831043
O    -2.274560   -1.208283   -0.053251   -0.006054   -0.028816   -0.315763
O     0.162774    2.644671   -0.280015    0.003944   -0.005103   -0.214369
H     2.078217   -1.428438    0.256174    0.010318    0.007388    0.352071
H    -1.863944    1.220158   -0.085875   -0.020723    0.028233    0.295317
H     2.342833    1.045176    0.117687   -0.012084    0.049696    0.574524
11
* Frequency(17)  809.9273
C     1.360210    0.563904   -0.108162    0.021875   -0.051431   -0.531801
C     1.181843   -0.795182    0.137263    0.015765    0.009019    0.292274
N     0.012110   -1.461911    0.020850    0.023412   -0.044526   -0.540203
C    -1.138404   -0.697870    0.231454   -0.042194    0.101416    1.278185
N    -0.994327    0.671042   -0.183483    0.005472   -0.039624   -0.545474
C     0.190088    1.422512    0.017748   -0.024433    0.077152    0.831043
O    -2.274010   -1.205663   -0.024541   -0.006054   -0.028816   -0.315763
O     0.162415    2.645135   -0.260524    0.003944   -0.005103   -0.214369
H     2.077278   -1.429110    0.224163    0.010318    0.007388    0.352071
H    -1.862060    1.217591   -0.112726   -0.020723    0.028233    0.295317
H     2.343931    1.040658    0.065450   -0.012084    0.049696    0.574524
11
* Frequency(17)  809.9273
C     1.357827    0.569509   -0.050210    0.021875   -0.051431   -0.531801
C     1.180125   -0.796165    0.105413    0.015765    0.009019    0.292274
N     0.009559   -1.457059    0.079718    0.023412   -0.044526   -0.540203
C    -1.133806   -0.708922    0.092165   -0.042194    0.101416    1.278185
N    -0.994923    0.675360   -0.124041    0.005472   -0.039624   -0.545474
C     0.192750    1.414104   -0.072814   -0.024433    0.077152    0.831043
O    -2.273350   -1.202522    0.009868   -0.006054   -0.028816   -0.315763
O     0.161985    2.645691   -0.237163    0.003944   -0.005103   -0.214369
H     2.076154   -1.429915    0.185797    0.010318    0.007388    0.352071
H    -1.859802    1.214514   -0.144908   -0.020723    0.028233    0.295317
H     2.345248    1.035242    0.002843   -0.012084    0.049696    0.574524
11
* Frequency(17)  809.9273
C     1.355306    0.575435    0.011062    0.021875   -0.051431   -0.531801
C     1.178309   -0.797204    0.071738    0.015765    0.009019    0.292274
N     0.006861   -1.451929    0.141958    0.023412   -0.044526   -0.540203
C    -1.128945   -0.720607   -0.055102   -0.042194    0.101416    1.278185
N    -0.995554    0.679925   -0.061193    0.005472   -0.039624   -0.545474
C     0.195565    1.405215   -0.168564   -0.024433    0.077152    0.831043
O    -2.272652   -1.199202    0.046249   -0.006054   -0.028816   -0.315763
O     0.161531    2.646279   -0.212465    0.003944   -0.005103   -0.214369
H     2.074965   -1.430766    0.145232    0.010318    0.007388    0.352071
H    -1.857414    1.211261   -0.178933   -0.020723    0.028233    0.295317
H     2.346640    1.029516   -0.063352   -0.012084    0.049696    0.574524
11
* Frequency(17)  809.9273
C     1.352923    0.581039    0.069015    0.021875   -0.051431   -0.531801
C     1.176591   -0.798187    0.039888    0.015765    0.009019    0.292274
N     0.004310   -1.447077    0.200826    0.023412   -0.044526   -0.540203
C    -1.124347   -0.731658   -0.194390   -0.042194    0.101416    1.278185
N    -0.996150    0.684243   -0.001751    0.005472   -0.039624   -0.545474
C     0.198228    1.396808   -0.259125   -0.024433    0.077152    0.831043
O    -2.271993   -1.196062    0.080659   -0.006054   -0.028816   -0.315763
O     0.161101    2.646836   -0.189104    0.003944   -0.005103   -0.214369
H     2.073841   -1.431571    0.106866    0.010318    0.007388    0.352071
H    -1.855156    1.208185   -0.211115   -0.020723    0.028233    0.295317
H     2.347957    1.024101   -0.125960   -0.012084    0.049696    0.574524
11
* Frequency(17)  809.9273
C     1.350934    0.585715    0.117367    0.021875   -0.051431   -0.531801
C     1.175158   -0.799007    0.013314    0.015765    0.009019    0.292274
N     0.002181   -1.443029    0.249942    0.023412   -0.044526   -0.540203
C    -1.120511   -0.740879   -0.310605   -0.042194    0.101416    1.278185
N    -0.996647    0.687846    0.047844    0.005472   -0.039624   -0.545474
C     0.200449    1.389793   -0.334685   -0.024433    0.077152    0.831043
O    -2.271442   -1.193442    0.109369   -0.006054   -0.028816   -0.315763
O     0.160743    2.647299   -0.169613    0.003944   -0.005103   -0.214369
H     2.072902   -1.432243    0.074855    0.010318    0.007388    0.352071
H    -1.853272    1.205618   -0.237965   -0.020723    0.028233    0.295317
H     2.349056    1.019582   -0.178196   -0.012084    0.049696    0.574524
11
* Frequency(17)  809.9273
C     1.349555    0.588957    0.150879    0.021875   -0.051431   -0.531801
C     1.174164   -0.799575   -0.005104    0.015765    0.009019    0.292274
N     0.000706   -1.440223    0.283984    0.023412   -0.044526   -0.540203
C    -1.117852   -0.747270   -0.391153   -0.042194    0.101416    1.278185
N    -0.996992    0.690343    0.082219    0.005472   -0.039624   -0.545474
C     0.201989    1.384931   -0.387055   -0.024433    0.077152    0.831043
O    -2.271061   -1.191626    0.129267   -0.006054   -0.028816   -0.315763
O     0.160494    2.647621   -0.156104    0.003944   -0.005103   -0.214369
H     2.072252   -1.432709    0.052669    0.010318    0.007388    0.352071
H    -1.851966    1.203838   -0.256575   -0.020723    0.028233    0.295317
H     2.349817    1.016451   -0.214401   -0.012084    0.049696    0.574524
11
* Frequency(17)  809.9273
C     1.348936    0.590411    0.165921    0.021875   -0.051431   -0.531801
C     1.173718   -0.799830   -0.013371    0.015765    0.009019    0.292274
N     0.000044   -1.438963    0.299263    0.023412   -0.044526   -0.540203
C    -1.116658   -0.750138   -0.427305   -0.042194    0.101416    1.278185
N    -0.997147    0.691464    0.097647    0.005472   -0.039624   -0.545474
C     0.202680    1.382749   -0.410560   -0.024433    0.077152    0.831043
O    -2.270889   -1.190811    0.138198   -0.006054   -0.028816   -0.315763
O     0.160382    2.647765   -0.150041    0.003944   -0.005103   -0.214369
H     2.071960   -1.432918    0.042711    0.010318    0.007388    0.352071
H    -1.851380    1.203040   -0.264928   -0.020723    0.028233    0.295317
H     2.350159    1.015045   -0.230651   -0.012084    0.049696    0.574524
11
* Frequency(17)  809.9273
C     1.349144    0.589922    0.160861    0.021875   -0.051431   -0.531801
C     1.173868   -0.799745   -0.010590    0.015765    0.009019    0.292274
N     0.000266   -1.439387    0.294124    0.023412   -0.044526   -0.540203
C    -1.117060   -0.749173   -0.415144   -0.042194    0.101416    1.278185
N    -0.997095    0.691087    0.092457    0.005472   -0.039624   -0.545474
C     0.202447    1.383483   -0.402654   -0.024433    0.077152    0.831043
O    -2.270947   -1.191085    0.135194   -0.006054   -0.028816   -0.315763
O     0.160420    2.647717   -0.152081    0.003944   -0.005103   -0.214369
H     2.072059   -1.432847    0.046060    0.010318    0.007388    0.352071
H    -1.851577    1.203308   -0.262118   -0.020723    0.028233    0.295317
H     2.350044    1.015518   -0.225185   -0.012084    0.049696    0.574524
11
* Frequency(17)  809.9273
C     1.350157    0.587542    0.136248    0.021875   -0.051431   -0.531801
C     1.174598   -0.799327    0.002937    0.015765    0.009019    0.292274
N     0.001350   -1.441448    0.269122    0.023412   -0.044526   -0.540203
C    -1.119013   -0.744480   -0.355987   -0.042194    0.101416    1.278185
N    -0.996842    0.689253    0.067211    0.005472   -0.039624   -0.545474
C     0.201317    1.387053   -0.364191   -0.024433    0.077152    0.831043
O    -2.271227   -1.192419    0.120580   -0.006054   -0.028816   -0.315763
O     0.160603    2.647481   -0.162002    0.003944   -0.005103   -0.214369
H     2.072536   -1.432505    0.062355    0.010318    0.007388    0.352071
H    -1.852536    1.204615   -0.248450   -0.020723    0.028233    0.295317
H     2.349485    1.017818   -0.198595   -0.012084    0.049696    0.574524
11
* Frequency(17)  809.9273
C     1.351864    0.583528    0.094750    0.021875   -0.051431   -0.531801
C     1.175828   -0.798623    0.025744    0.015765    0.009019    0.292274
N     0.003177   -1.444922    0.226968    0.023412   -0.044526   -0.540203
C    -1.122305   -0.736566   -0.256245   -0.042194    0.101416    1.278185
N    -0.996415    0.686161    0.024646    0.005472   -0.039624   -0.545474
C     0.199410    1.393074   -0.299342   -0.024433    0.077152    0.831043
O    -2.271700   -1.194668    0.095940   -0.006054   -0.028816   -0.315763
O     0.160910    2.647082   -0.178730    0.003944   -0.005103   -0.214369
H     2.073341   -1.431929    0.089828    0.010318    0.007388    0.352071
H    -1.854153    1.206818   -0.225406   -0.020723    0.028233    0.295317
H     2.348542    1.021696   -0.153763   -0.012084    0.049696    0.574524
11
* Frequency(17)  809.9273
C     1.354080    0.578317    0.040863    0.021875   -0.051431   -0.531801
C     1.177426   -0.797710    0.055360    0.015765    0.009019    0.292274
N     0.005549   -1.449434    0.172229    0.023412   -0.044526   -0.540203
C    -1.126581   -0.726290   -0.126727   -0.042194    0.101416    1.278185
N    -0.995860    0.682146   -0.030627    0.005472   -0.039624   -0.545474
C     0.196934    1.400892   -0.215133   -0.024433    0.077152    0.831043
O    -2.272313   -1.197588    0.063944   -0.006054   -0.028816   -0.315763
O     0.161310    2.646565   -0.200452    0.003944   -0.005103   -0.214369
H     2.074387   -1.431180    0.125504    0.010318    0.007388    0.352071
H    -1.856253    1.209679   -0.195481   -0.020723    0.028233    0.295317
H     2.347318    1.026732   -0.095546   -0.012084    0.049696    0.574524
11
* Frequency(17)  809.9273
C     1.356566    0.572472   -0.019574    0.021875   -0.051431   -0.531801
C     1.179217   -0.796685    0.088575    0.015765    0.009019    0.292274
N     0.008210   -1.454494    0.110838    0.023412   -0.044526   -0.540203
C    -1.131376   -0.714764    0.018532   -0.042194    0.101416    1.278185
N    -0.995238    0.677642   -0.092617    0.005472   -0.039624   -0.545474
C     0.194158    1.409660   -0.120689   -0.024433    0.077152    0.831043
O    -2.273001   -1.200862    0.028059   -0.006054   -0.028816   -0.315763
O     0.161758    2.645985   -0.224814    0.003944   -0.005103   -0.214369
H     2.075560   -1.430341    0.165515    0.010318    0.007388    0.352071
H    -1.858608    1.212888   -0.161920   -0.020723    0.028233    0.295317
H     2.345944    1.032379   -0.030255   -0.012084    0.049696    0.574524
