11
* (null), Energy   -1000.0000000
C     1.356566    0.572472   -0.019574    0.108583   -0.096770    0.010933
C     1.179217   -0.796685    0.088575   -0.137573   -0.087089    0.003553
N     0.008210   -1.454494    0.110838   -0.045898    0.030543   -0.003810
C    -1.131376   -0.714764    0.018532    0.912923    0.307772   -0.000883
N    -0.995238    0.677642   -0.092617   -0.156568   -0.230123    0.014674
C     0.194158    1.409660   -0.120689   -0.106370    0.703402   -0.061374
O    -2.273001   -1.200862    0.028059   -0.479812   -0.190854    0.002921
O     0.161758    2.645985   -0.224814    0.030266   -0.366260    0.031307
H     2.075560   -1.430341    0.165515    0.053337    0.212303   -0.016188
H    -1.858608    1.212888   -0.161920    0.701977    1.149341   -0.074017
H     2.345944    1.032379   -0.030255   -0.071850    0.396197   -0.034811
11
* Frequency(28) 1686.6967
C     1.368906    0.561474   -0.018331    0.108583   -0.096770    0.010933
C     1.163583   -0.806582    0.088979   -0.137573   -0.087089    0.003553
N     0.002994   -1.451023    0.110405   -0.045898    0.030543   -0.003810
C    -1.027627   -0.679787    0.018431    0.912923    0.307772   -0.000883
N    -1.013032    0.651490   -0.090949   -0.156568   -0.230123    0.014674
C     0.182069    1.489598   -0.127664   -0.106370    0.703402   -0.061374
O    -2.327529   -1.222552    0.028391   -0.479812   -0.190854    0.002921
O     0.165198    2.604362   -0.221256    0.030266   -0.366260    0.031307
H     2.081621   -1.406214    0.163675    0.053337    0.212303   -0.016188
H    -1.778832    1.343504   -0.170332    0.701977    1.149341   -0.074017
H     2.337779    1.077405   -0.034211   -0.071850    0.396197   -0.034811
11
* Frequency(28) 1686.6967
C     1.379909    0.551669   -0.017223    0.108583   -0.096770    0.010933
C     1.149642   -0.815407    0.089339   -0.137573   -0.087089    0.003553
N    -0.001657   -1.447928    0.110019   -0.045898    0.030543   -0.003810
C    -0.935121   -0.648601    0.018342    0.912923    0.307772   -0.000883
N    -1.028897    0.628172   -0.089462   -0.156568   -0.230123    0.014674
C     0.171291    1.560873   -0.133883   -0.106370    0.703402   -0.061374
O    -2.376148   -1.241891    0.028687   -0.479812   -0.190854    0.002921
O     0.168265    2.567249   -0.218084    0.030266   -0.366260    0.031307
H     2.087026   -1.384701    0.162035    0.053337    0.212303   -0.016188
H    -1.707701    1.459967   -0.177832    0.701977    1.149341   -0.074017
H     2.330498    1.117551   -0.037738   -0.071850    0.396197   -0.034811
11
* Frequency(28) 1686.6967
C     1.388382    0.544117   -0.016370    0.108583   -0.096770    0.010933
C     1.138907   -0.822202    0.089616   -0.137573   -0.087089    0.003553
N    -0.005239   -1.445545    0.109722   -0.045898    0.030543   -0.003810
C    -0.863882   -0.624584    0.018273    0.912923    0.307772   -0.000883
N    -1.041114    0.610214   -0.088317   -0.156568   -0.230123    0.014674
C     0.162990    1.615762   -0.138672   -0.106370    0.703402   -0.061374
O    -2.413590   -1.256784    0.028915   -0.479812   -0.190854    0.002921
O     0.170626    2.538668   -0.215641    0.030266   -0.366260    0.031307
H     2.091188   -1.368134    0.160771    0.053337    0.212303   -0.016188
H    -1.652923    1.549654   -0.183608    0.701977    1.149341   -0.074017
H     2.324892    1.148468   -0.040454   -0.071850    0.396197   -0.034811
11
* Frequency(28) 1686.6967
C     1.393408    0.539639   -0.015864    0.108583   -0.096770    0.010933
C     1.132540   -0.826233    0.089781   -0.137573   -0.087089    0.003553
N    -0.007363   -1.444131    0.109545   -0.045898    0.030543   -0.003810
C    -0.821630   -0.610340    0.018232    0.912923    0.307772   -0.000883
N    -1.048360    0.599564   -0.087638   -0.156568   -0.230123    0.014674
C     0.158067    1.648317   -0.141513   -0.106370    0.703402   -0.061374
O    -2.435797   -1.265617    0.029050   -0.479812   -0.190854    0.002921
O     0.172027    2.521717   -0.214192    0.030266   -0.366260    0.031307
H     2.093656   -1.358308    0.160022    0.053337    0.212303   -0.016188
H    -1.620434    1.602848   -0.187033    0.701977    1.149341   -0.074017
H     2.321566    1.166805   -0.042066   -0.071850    0.396197   -0.034811
11
* Frequency(28) 1686.6967
C     1.394441    0.538718   -0.015760    0.108583   -0.096770    0.010933
C     1.131231   -0.827062    0.089815   -0.137573   -0.087089    0.003553
N    -0.007799   -1.443841    0.109509   -0.045898    0.030543   -0.003810
C    -0.812944   -0.607412    0.018224    0.912923    0.307772   -0.000883
N    -1.049850    0.597374   -0.087498   -0.156568   -0.230123    0.014674
C     0.157055    1.655009   -0.142097   -0.106370    0.703402   -0.061374
O    -2.440362   -1.267433    0.029078   -0.479812   -0.190854    0.002921
O     0.172315    2.518232   -0.213894    0.030266   -0.366260    0.031307
H     2.094164   -1.356288    0.159868    0.053337    0.212303   -0.016188
H    -1.613755    1.613783   -0.187738    0.701977    1.149341   -0.074017
H     2.320883    1.170575   -0.042397   -0.071850    0.396197   -0.034811
11
* Frequency(28) 1686.6967
C     1.391370    0.541455   -0.016069    0.108583   -0.096770    0.010933
C     1.135122   -0.824598    0.089714   -0.137573   -0.087089    0.003553
N    -0.006501   -1.444705    0.109617   -0.045898    0.030543   -0.003810
C    -0.838765   -0.616117    0.018249    0.912923    0.307772   -0.000883
N    -1.045422    0.603883   -0.087913   -0.156568   -0.230123    0.014674
C     0.160064    1.635114   -0.140361   -0.106370    0.703402   -0.061374
O    -2.426791   -1.262035    0.028995   -0.479812   -0.190854    0.002921
O     0.171459    2.528592   -0.214779    0.030266   -0.366260    0.031307
H     2.092655   -1.362293    0.160326    0.053337    0.212303   -0.016188
H    -1.633610    1.581275   -0.185644    0.701977    1.149341   -0.074017
H     2.322915    1.159369   -0.041412   -0.071850    0.396197   -0.034811
11
* Frequency(28) 1686.6967
C     1.384527    0.547553   -0.016758    0.108583   -0.096770    0.010933
C     1.143792   -0.819110    0.089490   -0.137573   -0.087089    0.003553
N    -0.003609   -1.446629    0.109857   -0.045898    0.030543   -0.003810
C    -0.896295   -0.635512    0.018304    0.912923    0.307772   -0.000883
N    -1.035555    0.618385   -0.088838   -0.156568   -0.230123    0.014674
C     0.166767    1.590788   -0.136493   -0.106370    0.703402   -0.061374
O    -2.396554   -1.250008    0.028811   -0.479812   -0.190854    0.002921
O     0.169552    2.551672   -0.216752    0.030266   -0.366260    0.031307
H     2.089294   -1.375672    0.161346    0.053337    0.212303   -0.016188
H    -1.677847    1.508847   -0.180980    0.701977    1.149341   -0.074017
H     2.327443    1.134401   -0.039218   -0.071850    0.396197   -0.034811
11
* Frequency(28) 1686.6967
C     1.374654    0.556352   -0.017752    0.108583   -0.096770    0.010933
C     1.156300   -0.811192    0.089167   -0.137573   -0.087089    0.003553
N     0.000564   -1.449406    0.110203   -0.045898    0.030543   -0.003810
C    -0.979300   -0.663495    0.018385    0.912923    0.307772   -0.000883
N    -1.021320    0.639308   -0.090172   -0.156568   -0.230123    0.014674
C     0.176438    1.526833   -0.130913   -0.106370    0.703402   -0.061374
O    -2.352929   -1.232655    0.028545   -0.479812   -0.190854    0.002921
O     0.166800    2.584973   -0.219599    0.030266   -0.366260    0.031307
H     2.084444   -1.394975    0.162818    0.053337    0.212303   -0.016188
H    -1.741672    1.404347   -0.174250    0.701977    1.149341   -0.074017
H     2.333975    1.098378   -0.036053   -0.071850    0.396197   -0.034811
11
* Frequency(28) 1686.6967
C     1.362822    0.566897   -0.018944    0.108583   -0.096770    0.010933
C     1.171292   -0.801702    0.088780   -0.137573   -0.087089    0.003553
N     0.005566   -1.452735    0.110619   -0.045898    0.030543   -0.003810
C    -1.078784   -0.697034    0.018481    0.912923    0.307772   -0.000883
N    -1.004258    0.664386   -0.091772   -0.156568   -0.230123    0.014674
C     0.188030    1.450181   -0.124225   -0.106370    0.703402   -0.061374
O    -2.300642   -1.211857    0.028227   -0.479812   -0.190854    0.002921
O     0.163502    2.624886   -0.223010    0.030266   -0.366260    0.031307
H     2.078632   -1.418110    0.164582    0.053337    0.212303   -0.016188
H    -1.818169    1.279099   -0.166184    0.701977    1.149341   -0.074017
H     2.341805    1.055203   -0.032260   -0.071850    0.396197   -0.034811
11
* Frequency(28) 1686.6967
C     1.350311    0.578046   -0.020204    0.108583   -0.096770    0.010933
C     1.187142   -0.791668    0.088371   -0.137573   -0.087089    0.003553
N     0.010854   -1.456254    0.111058   -0.045898    0.030543   -0.003810
C    -1.183967   -0.732494    0.018583    0.912923    0.307772   -0.000883
N    -0.986219    0.690899   -0.093462   -0.156568   -0.230123    0.014674
C     0.200285    1.369138   -0.117153   -0.106370    0.703402   -0.061374
O    -2.245360   -1.189868    0.027891   -0.479812   -0.190854    0.002921
O     0.160015    2.667085   -0.226618    0.030266   -0.366260    0.031307
H     2.072487   -1.442571    0.166447    0.053337    0.212303   -0.016188
H    -1.899048    1.146676   -0.157656    0.701977    1.149341   -0.074017
H     2.350083    1.009555   -0.028249   -0.071850    0.396197   -0.034811
11
* Frequency(28) 1686.6967
C     1.338479    0.588592   -0.021395    0.108583   -0.096770    0.010933
C     1.202134   -0.782177    0.087983   -0.137573   -0.087089    0.003553
N     0.015856   -1.459582    0.111473   -0.045898    0.030543   -0.003810
C    -1.283452   -0.766033    0.018679    0.912923    0.307772   -0.000883
N    -0.969157    0.715977   -0.095061   -0.156568   -0.230123    0.014674
C     0.211877    1.292486   -0.110465   -0.106370    0.703402   -0.061374
O    -2.193073   -1.169070    0.027572   -0.479812   -0.190854    0.002921
O     0.156716    2.706998   -0.230029    0.030266   -0.366260    0.031307
H     2.066675   -1.465707    0.168211    0.053337    0.212303   -0.016188
H    -1.975544    1.021429   -0.149590    0.701977    1.149341   -0.074017
H     2.357913    0.966380   -0.024456   -0.071850    0.396197   -0.034811
11
* Frequency(28) 1686.6967
C     1.328606    0.597390   -0.022389    0.108583   -0.096770    0.010933
C     1.214643   -0.774259    0.087660   -0.137573   -0.087089    0.003553
N     0.020029   -1.462359    0.111819   -0.045898    0.030543   -0.003810
C    -1.366456   -0.794016    0.018759    0.912923    0.307772   -0.000883
N    -0.954921    0.736900   -0.096396   -0.156568   -0.230123    0.014674
C     0.221548    1.228531   -0.104885   -0.106370    0.703402   -0.061374
O    -2.149448   -1.151717    0.027307   -0.479812   -0.190854    0.002921
O     0.153965    2.740299   -0.232876    0.030266   -0.366260    0.031307
H     2.061825   -1.485009    0.169683    0.053337    0.212303   -0.016188
H    -2.039369    0.916929   -0.142861    0.701977    1.149341   -0.074017
H     2.364446    0.930357   -0.021291   -0.071850    0.396197   -0.034811
11
* Frequency(28) 1686.6967
C     1.321763    0.603488   -0.023078    0.108583   -0.096770    0.010933
C     1.223312   -0.768771    0.087436   -0.137573   -0.087089    0.003553
N     0.022921   -1.464284    0.112059   -0.045898    0.030543   -0.003810
C    -1.423986   -0.813411    0.018815    0.912923    0.307772   -0.000883
N    -0.945055    0.751402   -0.097320   -0.156568   -0.230123    0.014674
C     0.228251    1.184205   -0.101017   -0.106370    0.703402   -0.061374
O    -2.119211   -1.139690    0.027123   -0.479812   -0.190854    0.002921
O     0.152057    2.763379   -0.234849    0.030266   -0.366260    0.031307
H     2.058464   -1.498388    0.170703    0.053337    0.212303   -0.016188
H    -2.083606    0.844500   -0.138196    0.701977    1.149341   -0.074017
H     2.368974    0.905390   -0.019097   -0.071850    0.396197   -0.034811
11
* Frequency(28) 1686.6967
C     1.318692    0.606225   -0.023387    0.108583   -0.096770    0.010933
C     1.227203   -0.766308    0.087336   -0.137573   -0.087089    0.003553
N     0.024219   -1.465148    0.112167   -0.045898    0.030543   -0.003810
C    -1.449807   -0.822116    0.018840    0.912923    0.307772   -0.000883
N    -0.940627    0.757911   -0.097735   -0.156568   -0.230123    0.014674
C     0.231260    1.164310   -0.099281   -0.106370    0.703402   -0.061374
O    -2.105640   -1.134292    0.027040   -0.479812   -0.190854    0.002921
O     0.151201    2.773738   -0.235734    0.030266   -0.366260    0.031307
H     2.056955   -1.504393    0.171161    0.053337    0.212303   -0.016188
H    -2.103461    0.811992   -0.136103    0.701977    1.149341   -0.074017
H     2.371006    0.894184   -0.018113   -0.071850    0.396197   -0.034811
11
* Frequency(28) 1686.6967
C     1.319725    0.605305   -0.023283    0.108583   -0.096770    0.010933
C     1.225894   -0.767136    0.087370   -0.137573   -0.087089    0.003553
N     0.023783   -1.464857    0.112131   -0.045898    0.030543   -0.003810
C    -1.441121   -0.819188    0.018831    0.912923    0.307772   -0.000883
N    -0.942116    0.755721   -0.097596   -0.156568   -0.230123    0.014674
C     0.230248    1.171002   -0.099865   -0.106370    0.703402   -0.061374
O    -2.110205   -1.136107    0.027068   -0.479812   -0.190854    0.002921
O     0.151489    2.770254   -0.235436    0.030266   -0.366260    0.031307
H     2.057463   -1.502373    0.171007    0.053337    0.212303   -0.016188
H    -2.096782    0.822928   -0.136807    0.701977    1.149341   -0.074017
H     2.370322    0.897954   -0.018444   -0.071850    0.396197   -0.034811
11
* Frequency(28) 1686.6967
C     1.324751    0.600826   -0.022777    0.108583   -0.096770    0.010933
C     1.219527   -0.771167    0.087534   -0.137573   -0.087089    0.003553
N     0.021659   -1.463444    0.111954   -0.045898    0.030543   -0.003810
C    -1.398870   -0.804944    0.018790    0.912923    0.307772   -0.000883
N    -0.949363    0.745071   -0.096917   -0.156568   -0.230123    0.014674
C     0.225325    1.203557   -0.102706   -0.106370    0.703402   -0.061374
O    -2.132412   -1.144941    0.027203   -0.479812   -0.190854    0.002921
O     0.152890    2.753303   -0.233987    0.030266   -0.366260    0.031307
H     2.059931   -1.492547    0.170258    0.053337    0.212303   -0.016188
H    -2.064293    0.876121   -0.140233    0.701977    1.149341   -0.074017
H     2.366997    0.916290   -0.020055   -0.071850    0.396197   -0.034811
11
* Frequency(28) 1686.6967
C     1.333224    0.593275   -0.021924    0.108583   -0.096770    0.010933
C     1.208792   -0.777963    0.087811   -0.137573   -0.087089    0.003553
N     0.018077   -1.461060    0.111657   -0.045898    0.030543   -0.003810
C    -1.327631   -0.780927    0.018722    0.912923    0.307772   -0.000883
N    -0.961580    0.727113   -0.095772   -0.156568   -0.230123    0.014674
C     0.217024    1.258446   -0.107495   -0.106370    0.703402   -0.061374
O    -2.169854   -1.159834    0.027431   -0.479812   -0.190854    0.002921
O     0.155252    2.724722   -0.231544    0.030266   -0.366260    0.031307
H     2.064093   -1.475980    0.168994    0.053337    0.212303   -0.016188
H    -2.009515    0.965809   -0.146008    0.701977    1.149341   -0.074017
H     2.361390    0.947207   -0.022771   -0.071850    0.396197   -0.034811
11
* Frequency(28) 1686.6967
C     1.344227    0.583469   -0.020816    0.108583   -0.096770    0.010933
C     1.194852   -0.786787    0.088171   -0.137573   -0.087089    0.003553
N     0.013426   -1.457965    0.111271   -0.045898    0.030543   -0.003810
C    -1.235125   -0.749741    0.018632    0.912923    0.307772   -0.000883
N    -0.977445    0.703795   -0.094285   -0.156568   -0.230123    0.014674
C     0.206246    1.329722   -0.113714   -0.106370    0.703402   -0.061374
O    -2.218473   -1.179173    0.027727   -0.479812   -0.190854    0.002921
O     0.158319    2.687609   -0.228372    0.030266   -0.366260    0.031307
H     2.069498   -1.454468    0.167354    0.053337    0.212303   -0.016188
H    -1.938384    1.082271   -0.153509    0.701977    1.149341   -0.074017
H     2.354110    0.987354   -0.026299   -0.071850    0.396197   -0.034811
11
* Frequency(28) 1686.6967
C     1.356566    0.572472   -0.019574    0.108583   -0.096770    0.010933
C     1.179217   -0.796685    0.088575   -0.137573   -0.087089    0.003553
N     0.008210   -1.454494    0.110838   -0.045898    0.030543   -0.003810
C    -1.131376   -0.714764    0.018532    0.912923    0.307772   -0.000883
N    -0.995238    0.677642   -0.092617   -0.156568   -0.230123    0.014674
C     0.194158    1.409660   -0.120689   -0.106370    0.703402   -0.061374
O    -2.273001   -1.200862    0.028059   -0.479812   -0.190854    0.002921
O     0.161758    2.645985   -0.224814    0.030266   -0.366260    0.031307
H     2.075560   -1.430341    0.165515    0.053337    0.212303   -0.016188
H    -1.858608    1.212888   -0.161920    0.701977    1.149341   -0.074017
H     2.345944    1.032379   -0.030255   -0.071850    0.396197   -0.034811
