11
* (null), Energy   -1000.0000000
C     1.356566    0.572472   -0.019574   -0.091359    0.181237   -0.017420
C     1.179217   -0.796685    0.088575    0.057167    0.031128   -0.001183
N     0.008210   -1.454494    0.110838    0.141659   -0.078536    0.010429
C    -1.131376   -0.714764    0.018532    0.011852    0.162836   -0.013402
N    -0.995238    0.677642   -0.092617    0.199953    0.202222   -0.011145
C     0.194158    1.409660   -0.120689   -0.102311    0.067324   -0.008462
O    -2.273001   -1.200862    0.028059   -0.144523   -0.098527    0.004322
O     0.161758    2.645985   -0.224814    0.005783   -0.166248    0.014021
H     2.075560   -1.430341    0.165515   -0.776958   -1.131031    0.072451
H    -1.858608    1.212888   -0.161920   -0.561626   -1.031693    0.068763
H     2.345944    1.032379   -0.030255    0.278993   -0.626445    0.059797
11
* Frequency(25) 1389.9560
C     1.346184    0.593068   -0.021553   -0.091359    0.181237   -0.017420
C     1.185714   -0.793147    0.088441    0.057167    0.031128   -0.001183
N     0.024309   -1.463419    0.112023    0.141659   -0.078536    0.010429
C    -1.130029   -0.696259    0.017009    0.011852    0.162836   -0.013402
N    -0.972515    0.700624   -0.093884    0.199953    0.202222   -0.011145
C     0.182531    1.417311   -0.121651   -0.102311    0.067324   -0.008462
O    -2.289425   -1.212060    0.028550   -0.144523   -0.098527    0.004322
O     0.162415    2.627092   -0.223221    0.005783   -0.166248    0.014021
H     1.987262   -1.558877    0.173748   -0.776958   -1.131031    0.072451
H    -1.922434    1.095641   -0.154106   -0.561626   -1.031693    0.068763
H     2.377650    0.961187   -0.023459    0.278993   -0.626445    0.059797
11
* Frequency(25) 1389.9560
C     1.336927    0.611433   -0.023318   -0.091359    0.181237   -0.017420
C     1.191506   -0.789993    0.088321    0.057167    0.031128   -0.001183
N     0.038663   -1.471377    0.113080    0.141659   -0.078536    0.010429
C    -1.128828   -0.679759    0.015651    0.011852    0.162836   -0.013402
N    -0.952254    0.721115   -0.095013    0.199953    0.202222   -0.011145
C     0.172163    1.424133   -0.122508   -0.102311    0.067324   -0.008462
O    -2.304070   -1.222043    0.028988   -0.144523   -0.098527    0.004322
O     0.163001    2.610246   -0.221800    0.005783   -0.166248    0.014021
H     1.908533   -1.673483    0.181090   -0.776958   -1.131031    0.072451
H    -1.979343    0.991100   -0.147138   -0.561626   -1.031693    0.068763
H     2.405921    0.897710   -0.017400    0.278993   -0.626445    0.059797
11
* Frequency(25) 1389.9560
C     1.329798    0.625576   -0.024678   -0.091359    0.181237   -0.017420
C     1.195967   -0.787564    0.088229    0.057167    0.031128   -0.001183
N     0.049717   -1.477506    0.113894    0.141659   -0.078536    0.010429
C    -1.127903   -0.667052    0.014605    0.011852    0.162836   -0.013402
N    -0.936651    0.736895   -0.095883    0.199953    0.202222   -0.011145
C     0.164180    1.429386   -0.123168   -0.102311    0.067324   -0.008462
O    -2.315347   -1.229732    0.029325   -0.144523   -0.098527    0.004322
O     0.163453    2.597273   -0.220706    0.005783   -0.166248    0.014021
H     1.847904   -1.761742    0.186743   -0.776958   -1.131031    0.072451
H    -2.023169    0.910593   -0.141772   -0.561626   -1.031693    0.068763
H     2.427692    0.848826   -0.012733    0.278993   -0.626445    0.059797
11
* Frequency(25) 1389.9560
C     1.325569    0.633964   -0.025484   -0.091359    0.181237   -0.017420
C     1.198613   -0.786123    0.088174    0.057167    0.031128   -0.001183
N     0.056273   -1.481141    0.114376    0.141659   -0.078536    0.010429
C    -1.127354   -0.659516    0.013985    0.011852    0.162836   -0.013402
N    -0.927396    0.746254   -0.096398    0.199953    0.202222   -0.011145
C     0.159445    1.432502   -0.123560   -0.102311    0.067324   -0.008462
O    -2.322036   -1.234292    0.029525   -0.144523   -0.098527    0.004322
O     0.163720    2.589579   -0.220057    0.005783   -0.166248    0.014021
H     1.811945   -1.814088    0.190096   -0.776958   -1.131031    0.072451
H    -2.049162    0.862844   -0.138590   -0.561626   -1.031693    0.068763
H     2.440604    0.819833   -0.009966    0.278993   -0.626445    0.059797
11
* Frequency(25) 1389.9560
C     1.324700    0.635688   -0.025650   -0.091359    0.181237   -0.017420
C     1.199157   -0.785827    0.088163    0.057167    0.031128   -0.001183
N     0.057621   -1.481888    0.114476    0.141659   -0.078536    0.010429
C    -1.127242   -0.657966    0.013857    0.011852    0.162836   -0.013402
N    -0.925494    0.748178   -0.096504    0.199953    0.202222   -0.011145
C     0.158471    1.433143   -0.123640   -0.102311    0.067324   -0.008462
O    -2.323411   -1.235229    0.029566   -0.144523   -0.098527    0.004322
O     0.163775    2.587997   -0.219924    0.005783   -0.166248    0.014021
H     1.804553   -1.824849    0.190786   -0.776958   -1.131031    0.072451
H    -2.054506    0.853028   -0.137935   -0.561626   -1.031693    0.068763
H     2.443258    0.813872   -0.009397    0.278993   -0.626445    0.059797
11
* Frequency(25) 1389.9560
C     1.327284    0.630562   -0.025157   -0.091359    0.181237   -0.017420
C     1.197540   -0.786708    0.088196    0.057167    0.031128   -0.001183
N     0.053614   -1.479667    0.114181    0.141659   -0.078536    0.010429
C    -1.127577   -0.662572    0.014236    0.011852    0.162836   -0.013402
N    -0.931149    0.742459   -0.096189    0.199953    0.202222   -0.011145
C     0.161365    1.431238   -0.123401   -0.102311    0.067324   -0.008462
O    -2.319324   -1.232443    0.029444   -0.144523   -0.098527    0.004322
O     0.163612    2.592699   -0.220320    0.005783   -0.166248    0.014021
H     1.826528   -1.792859    0.188737   -0.776958   -1.131031    0.072451
H    -2.038621    0.882209   -0.139880   -0.561626   -1.031693    0.068763
H     2.435367    0.831591   -0.011088    0.278993   -0.626445    0.059797
11
* Frequency(25) 1389.9560
C     1.333041    0.619141   -0.024059   -0.091359    0.181237   -0.017420
C     1.193938   -0.788669    0.088271    0.057167    0.031128   -0.001183
N     0.044688   -1.474717    0.113523    0.141659   -0.078536    0.010429
C    -1.128324   -0.672833    0.015081    0.011852    0.162836   -0.013402
N    -0.943750    0.729715   -0.095487    0.199953    0.202222   -0.011145
C     0.167812    1.426996   -0.122868   -0.102311    0.067324   -0.008462
O    -2.310216   -1.226234    0.029172   -0.144523   -0.098527    0.004322
O     0.163247    2.603176   -0.221204    0.005783   -0.166248    0.014021
H     1.875490   -1.721585    0.184171   -0.776958   -1.131031    0.072451
H    -2.003229    0.947223   -0.144213   -0.561626   -1.031693    0.068763
H     2.417786    0.871068   -0.014857    0.278993   -0.626445    0.059797
11
* Frequency(25) 1389.9560
C     1.341348    0.602663   -0.022475   -0.091359    0.181237   -0.017420
C     1.188740   -0.791499    0.088378    0.057167    0.031128   -0.001183
N     0.031808   -1.467577    0.112575    0.141659   -0.078536    0.010429
C    -1.129401   -0.687639    0.016299    0.011852    0.162836   -0.013402
N    -0.961930    0.711329   -0.094473    0.199953    0.202222   -0.011145
C     0.177115    1.420875   -0.122098   -0.102311    0.067324   -0.008462
O    -2.297076   -1.217275    0.028779   -0.144523   -0.098527    0.004322
O     0.162722    2.618292   -0.222478    0.005783   -0.166248    0.014021
H     1.946133   -1.618750    0.177584   -0.776958   -1.131031    0.072451
H    -1.952165    1.041027   -0.150466   -0.561626   -1.031693    0.068763
H     2.392419    0.928025   -0.020293    0.278993   -0.626445    0.059797
11
* Frequency(25) 1389.9560
C     1.351303    0.582912   -0.020577   -0.091359    0.181237   -0.017420
C     1.182510   -0.794891    0.088507    0.057167    0.031128   -0.001183
N     0.016371   -1.459019    0.111439    0.141659   -0.078536    0.010429
C    -1.130693   -0.705384    0.017760    0.011852    0.162836   -0.013402
N    -0.983719    0.689292   -0.093259    0.199953    0.202222   -0.011145
C     0.188264    1.413538   -0.121176   -0.102311    0.067324   -0.008462
O    -2.281327   -1.206538    0.028308   -0.144523   -0.098527    0.004322
O     0.162091    2.636408   -0.224006    0.005783   -0.166248    0.014021
H     2.030800   -1.495497    0.169688   -0.776958   -1.131031    0.072451
H    -1.890962    1.153454   -0.157959   -0.561626   -1.031693    0.068763
H     2.362017    0.996291   -0.026810    0.278993   -0.626445    0.059797
11
* Frequency(25) 1389.9560
C     1.361830    0.562031   -0.018570   -0.091359    0.181237   -0.017420
C     1.175924   -0.798478    0.088643    0.057167    0.031128   -0.001183
N     0.000049   -1.449970    0.110237    0.141659   -0.078536    0.010429
C    -1.132059   -0.724145    0.019304    0.011852    0.162836   -0.013402
N    -1.006757    0.665993   -0.091975    0.199953    0.202222   -0.011145
C     0.200052    1.405781   -0.120201   -0.102311    0.067324   -0.008462
O    -2.264675   -1.195186    0.027810   -0.144523   -0.098527    0.004322
O     0.161425    2.655563   -0.225622    0.005783   -0.166248    0.014021
H     2.120319   -1.365184    0.161341   -0.776958   -1.131031    0.072451
H    -1.826254    1.272322   -0.165881   -0.561626   -1.031693    0.068763
H     2.329872    1.068468   -0.033699    0.278993   -0.626445    0.059797
11
* Frequency(25) 1389.9560
C     1.371785    0.542281   -0.016672   -0.091359    0.181237   -0.017420
C     1.169694   -0.801870    0.088772    0.057167    0.031128   -0.001183
N    -0.015388   -1.441412    0.109101    0.141659   -0.078536    0.010429
C    -1.133350   -0.741890    0.020764    0.011852    0.162836   -0.013402
N    -1.028547    0.643956   -0.090760    0.199953    0.202222   -0.011145
C     0.211201    1.398445   -0.119279   -0.102311    0.067324   -0.008462
O    -2.248926   -1.184450    0.027339   -0.144523   -0.098527    0.004322
O     0.160795    2.673679   -0.227150    0.005783   -0.166248    0.014021
H     2.204986   -1.241932    0.153446   -0.776958   -1.131031    0.072451
H    -1.765052    1.384749   -0.173375   -0.561626   -1.031693    0.068763
H     2.299469    1.136734   -0.040216    0.278993   -0.626445    0.059797
11
* Frequency(25) 1389.9560
C     1.380092    0.525803   -0.015088   -0.091359    0.181237   -0.017420
C     1.164497   -0.804700    0.088880    0.057167    0.031128   -0.001183
N    -0.028268   -1.434271    0.108153    0.141659   -0.078536    0.010429
C    -1.134428   -0.756695    0.021983    0.011852    0.162836   -0.013402
N    -1.046727    0.625570   -0.089747    0.199953    0.202222   -0.011145
C     0.220503    1.392323   -0.118510   -0.102311    0.067324   -0.008462
O    -2.235786   -1.175491    0.026946   -0.144523   -0.098527    0.004322
O     0.160269    2.688795   -0.228424    0.005783   -0.166248    0.014021
H     2.275629   -1.139097    0.146858   -0.776958   -1.131031    0.072451
H    -1.713988    1.478552   -0.179627   -0.561626   -1.031693    0.068763
H     2.274103    1.193691   -0.045653    0.278993   -0.626445    0.059797
11
* Frequency(25) 1389.9560
C     1.385849    0.514382   -0.013990   -0.091359    0.181237   -0.017420
C     1.160894   -0.806662    0.088955    0.057167    0.031128   -0.001183
N    -0.037194   -1.429322    0.107495    0.141659   -0.078536    0.010429
C    -1.135175   -0.766956    0.022827    0.011852    0.162836   -0.013402
N    -1.059327    0.612826   -0.089045    0.199953    0.202222   -0.011145
C     0.226950    1.388081   -0.117977   -0.102311    0.067324   -0.008462
O    -2.226678   -1.169282    0.026674   -0.144523   -0.098527    0.004322
O     0.159904    2.699272   -0.229308    0.005783   -0.166248    0.014021
H     2.324591   -1.067822    0.142293   -0.776958   -1.131031    0.072451
H    -1.678595    1.543567   -0.183960   -0.561626   -1.031693    0.068763
H     2.256521    1.233168   -0.049421    0.278993   -0.626445    0.059797
11
* Frequency(25) 1389.9560
C     1.388433    0.509255   -0.013498   -0.091359    0.181237   -0.017420
C     1.159277   -0.807542    0.088988    0.057167    0.031128   -0.001183
N    -0.041201   -1.427101    0.107200    0.141659   -0.078536    0.010429
C    -1.135510   -0.771562    0.023206    0.011852    0.162836   -0.013402
N    -1.064983    0.607107   -0.088729    0.199953    0.202222   -0.011145
C     0.229844    1.386177   -0.117737   -0.102311    0.067324   -0.008462
O    -2.222591   -1.166496    0.026551   -0.144523   -0.098527    0.004322
O     0.159741    2.703974   -0.229704    0.005783   -0.166248    0.014021
H     2.346566   -1.035832    0.140243   -0.776958   -1.131031    0.072451
H    -1.662710    1.572747   -0.185905   -0.561626   -1.031693    0.068763
H     2.248630    1.250886   -0.051112    0.278993   -0.626445    0.059797
11
* Frequency(25) 1389.9560
C     1.387564    0.510980   -0.013663   -0.091359    0.181237   -0.017420
C     1.159821   -0.807246    0.088977    0.057167    0.031128   -0.001183
N    -0.039853   -1.427848    0.107300    0.141659   -0.078536    0.010429
C    -1.135397   -0.770013    0.023079    0.011852    0.162836   -0.013402
N    -1.063080    0.609031   -0.088836    0.199953    0.202222   -0.011145
C     0.228871    1.386817   -0.117818   -0.102311    0.067324   -0.008462
O    -2.223966   -1.167433    0.026592   -0.144523   -0.098527    0.004322
O     0.159796    2.702392   -0.229571    0.005783   -0.166248    0.014021
H     2.339174   -1.046593    0.140933   -0.776958   -1.131031    0.072451
H    -1.668054    1.562931   -0.185251   -0.561626   -1.031693    0.068763
H     2.251285    1.244926   -0.050543    0.278993   -0.626445    0.059797
11
* Frequency(25) 1389.9560
C     1.383335    0.519368   -0.014469   -0.091359    0.181237   -0.017420
C     1.162467   -0.805805    0.088922    0.057167    0.031128   -0.001183
N    -0.033297   -1.431483    0.107782    0.141659   -0.078536    0.010429
C    -1.134849   -0.762476    0.022459    0.011852    0.162836   -0.013402
N    -1.053826    0.618390   -0.089351    0.199953    0.202222   -0.011145
C     0.224136    1.389933   -0.118209   -0.102311    0.067324   -0.008462
O    -2.230655   -1.171993    0.026792   -0.144523   -0.098527    0.004322
O     0.160064    2.694698   -0.228922    0.005783   -0.166248    0.014021
H     2.303215   -1.098939    0.144286   -0.776958   -1.131031    0.072451
H    -1.694047    1.515182   -0.182068   -0.561626   -1.031693    0.068763
H     2.264197    1.215933   -0.047776    0.278993   -0.626445    0.059797
11
* Frequency(25) 1389.9560
C     1.376206    0.533510   -0.015829   -0.091359    0.181237   -0.017420
C     1.166928   -0.803376    0.088830    0.057167    0.031128   -0.001183
N    -0.022243   -1.437611    0.108596    0.141659   -0.078536    0.010429
C    -1.133924   -0.749770    0.021413    0.011852    0.162836   -0.013402
N    -1.038223    0.634170   -0.090221    0.199953    0.202222   -0.011145
C     0.216152    1.395187   -0.118870   -0.102311    0.067324   -0.008462
O    -2.241932   -1.179682    0.027130   -0.144523   -0.098527    0.004322
O     0.160515    2.681725   -0.227828    0.005783   -0.166248    0.014021
H     2.242586   -1.187198    0.149939   -0.776958   -1.131031    0.072451
H    -1.737873    1.434675   -0.176702   -0.561626   -1.031693    0.068763
H     2.285968    1.167049   -0.043110    0.278993   -0.626445    0.059797
11
* Frequency(25) 1389.9560
C     1.366949    0.551875   -0.017594   -0.091359    0.181237   -0.017420
C     1.172720   -0.800222    0.088710    0.057167    0.031128   -0.001183
N    -0.007889   -1.445569    0.109653    0.141659   -0.078536    0.010429
C    -1.132723   -0.733270    0.020055    0.011852    0.162836   -0.013402
N    -1.017962    0.654661   -0.091350    0.199953    0.202222   -0.011145
C     0.205785    1.402009   -0.119727   -0.102311    0.067324   -0.008462
O    -2.256577   -1.189665    0.027568   -0.144523   -0.098527    0.004322
O     0.161101    2.664879   -0.226407    0.005783   -0.166248    0.014021
H     2.163857   -1.301805    0.157281   -0.776958   -1.131031    0.072451
H    -1.794782    1.330134   -0.169735   -0.561626   -1.031693    0.068763
H     2.314238    1.103572   -0.037050    0.278993   -0.626445    0.059797
11
* Frequency(25) 1389.9560
C     1.356566    0.572472   -0.019574   -0.091359    0.181237   -0.017420
C     1.179217   -0.796685    0.088575    0.057167    0.031128   -0.001183
N     0.008210   -1.454494    0.110838    0.141659   -0.078536    0.010429
C    -1.131376   -0.714764    0.018532    0.011852    0.162836   -0.013402
N    -0.995238    0.677642   -0.092617    0.199953    0.202222   -0.011145
C     0.194158    1.409660   -0.120689   -0.102311    0.067324   -0.008462
O    -2.273001   -1.200862    0.028059   -0.144523   -0.098527    0.004322
O     0.161758    2.645985   -0.224814    0.005783   -0.166248    0.014021
H     2.075560   -1.430341    0.165515   -0.776958   -1.131031    0.072451
H    -1.858608    1.212888   -0.161920   -0.561626   -1.031693    0.068763
H     2.345944    1.032379   -0.030255    0.278993   -0.626445    0.059797
