11
* (null), Energy   -1000.0000000
C     1.356566    0.572472   -0.019574   -0.025432    0.010340    0.125989
C     1.179217   -0.796685    0.088575    0.016887   -0.028669   -0.335670
N     0.008210   -1.454494    0.110838    0.004624   -0.002381    0.029027
C    -1.131376   -0.714764    0.018532   -0.008862    0.008115    0.077807
N    -0.995238    0.677642   -0.092617    0.018905    0.011569   -0.018973
C     0.194158    1.409660   -0.120689    0.002312   -0.001304    0.039188
O    -2.273001   -1.200862    0.028059   -0.007302   -0.007708   -0.015919
O     0.161758    2.645985   -0.224814   -0.001906   -0.006182   -0.007402
H     2.075560   -1.430341    0.165515   -0.026616    0.179756    1.886989
H    -1.858608    1.212888   -0.161920    0.050347    0.058748   -0.044946
H     2.345944    1.032379   -0.030255   -0.024671   -0.008470   -0.507182
11
* Frequency(19) 1006.3394
C     1.353676    0.573647   -0.005256   -0.025432    0.010340    0.125989
C     1.181136   -0.799943    0.050428    0.016887   -0.028669   -0.335670
N     0.008736   -1.454765    0.114137    0.004624   -0.002381    0.029027
C    -1.132383   -0.713842    0.027374   -0.008862    0.008115    0.077807
N    -0.993090    0.678957   -0.094773    0.018905    0.011569   -0.018973
C     0.194420    1.409511   -0.116235    0.002312   -0.001304    0.039188
O    -2.273831   -1.201738    0.026250   -0.007302   -0.007708   -0.015919
O     0.161542    2.645283   -0.225655   -0.001906   -0.006182   -0.007402
H     2.072535   -1.409912    0.379961   -0.026616    0.179756    1.886989
H    -1.852886    1.219564   -0.167028    0.050347    0.058748   -0.044946
H     2.343141    1.031417   -0.087893   -0.024671   -0.008470   -0.507182
11
* Frequency(19) 1006.3394
C     1.351099    0.574694    0.007511   -0.025432    0.010340    0.125989
C     1.182847   -0.802848    0.016415    0.016887   -0.028669   -0.335670
N     0.009204   -1.455006    0.117078    0.004624   -0.002381    0.029027
C    -1.133281   -0.713020    0.035258   -0.008862    0.008115    0.077807
N    -0.991174    0.680129   -0.096696    0.018905    0.011569   -0.018973
C     0.194655    1.409379   -0.112264    0.002312   -0.001304    0.039188
O    -2.274571   -1.202519    0.024637   -0.007302   -0.007708   -0.015919
O     0.161348    2.644657   -0.226405   -0.001906   -0.006182   -0.007402
H     2.069838   -1.391698    0.571169   -0.026616    0.179756    1.886989
H    -1.847785    1.225517   -0.171582    0.050347    0.058748   -0.044946
H     2.340641    1.030558   -0.139286   -0.024671   -0.008470   -0.507182
11
* Frequency(19) 1006.3394
C     1.349115    0.575501    0.017342   -0.025432    0.010340    0.125989
C     1.184165   -0.805085   -0.009779    0.016887   -0.028669   -0.335670
N     0.009565   -1.455192    0.119343    0.004624   -0.002381    0.029027
C    -1.133972   -0.712386    0.041330   -0.008862    0.008115    0.077807
N    -0.989699    0.681032   -0.098176    0.018905    0.011569   -0.018973
C     0.194835    1.409277   -0.109207    0.002312   -0.001304    0.039188
O    -2.275141   -1.203121    0.023394   -0.007302   -0.007708   -0.015919
O     0.161200    2.644174   -0.226983   -0.001906   -0.006182   -0.007402
H     2.067761   -1.377671    0.718418   -0.026616    0.179756    1.886989
H    -1.843856    1.230101   -0.175090    0.050347    0.058748   -0.044946
H     2.338716    1.029897   -0.178863   -0.024671   -0.008470   -0.507182
11
* Frequency(19) 1006.3394
C     1.347938    0.575980    0.023173   -0.025432    0.010340    0.125989
C     1.184947   -0.806412   -0.025314    0.016887   -0.028669   -0.335670
N     0.009779   -1.455302    0.120687    0.004624   -0.002381    0.029027
C    -1.134382   -0.712011    0.044931   -0.008862    0.008115    0.077807
N    -0.988824    0.681568   -0.099054    0.018905    0.011569   -0.018973
C     0.194942    1.409217   -0.107393    0.002312   -0.001304    0.039188
O    -2.275479   -1.203478    0.022658   -0.007302   -0.007708   -0.015919
O     0.161111    2.643888   -0.227325   -0.001906   -0.006182   -0.007402
H     2.066529   -1.369351    0.805751   -0.026616    0.179756    1.886989
H    -1.841526    1.232820   -0.177170    0.050347    0.058748   -0.044946
H     2.337574    1.029505   -0.202337   -0.024671   -0.008470   -0.507182
11
* Frequency(19) 1006.3394
C     1.347696    0.576078    0.024372   -0.025432    0.010340    0.125989
C     1.185107   -0.806684   -0.028508    0.016887   -0.028669   -0.335670
N     0.009823   -1.455325    0.120963    0.004624   -0.002381    0.029027
C    -1.134467   -0.711934    0.045671   -0.008862    0.008115    0.077807
N    -0.988644    0.681678   -0.099235    0.018905    0.011569   -0.018973
C     0.194964    1.409205   -0.107020    0.002312   -0.001304    0.039188
O    -2.275548   -1.203551    0.022506   -0.007302   -0.007708   -0.015919
O     0.161093    2.643829   -0.227396   -0.001906   -0.006182   -0.007402
H     2.066276   -1.367641    0.823705   -0.026616    0.179756    1.886989
H    -1.841047    1.233379   -0.177597    0.050347    0.058748   -0.044946
H     2.337339    1.029425   -0.207162   -0.024671   -0.008470   -0.507182
11
* Frequency(19) 1006.3394
C     1.348415    0.575786    0.020808   -0.025432    0.010340    0.125989
C     1.184630   -0.805874   -0.019014    0.016887   -0.028669   -0.335670
N     0.009692   -1.455257    0.120142    0.004624   -0.002381    0.029027
C    -1.134216   -0.712163    0.043470   -0.008862    0.008115    0.077807
N    -0.989179    0.681350   -0.098698    0.018905    0.011569   -0.018973
C     0.194899    1.409242   -0.108128    0.002312   -0.001304    0.039188
O    -2.275341   -1.203333    0.022956   -0.007302   -0.007708   -0.015919
O     0.161147    2.644004   -0.227187   -0.001906   -0.006182   -0.007402
H     2.067029   -1.372725    0.770333   -0.026616    0.179756    1.886989
H    -1.842471    1.231718   -0.176326    0.050347    0.058748   -0.044946
H     2.338037    1.029664   -0.192817   -0.024671   -0.008470   -0.507182
11
* Frequency(19) 1006.3394
C     1.350018    0.575134    0.012869   -0.025432    0.010340    0.125989
C     1.183566   -0.804067    0.002139    0.016887   -0.028669   -0.335670
N     0.009401   -1.455107    0.118313    0.004624   -0.002381    0.029027
C    -1.133658   -0.712675    0.038567   -0.008862    0.008115    0.077807
N    -0.990370    0.680621   -0.097503    0.018905    0.011569   -0.018973
C     0.194753    1.409324   -0.110598    0.002312   -0.001304    0.039188
O    -2.274881   -1.202847    0.023960   -0.007302   -0.007708   -0.015919
O     0.161267    2.644394   -0.226720   -0.001906   -0.006182   -0.007402
H     2.068706   -1.384053    0.651420   -0.026616    0.179756    1.886989
H    -1.845644    1.228016   -0.173494    0.050347    0.058748   -0.044946
H     2.339592    1.030198   -0.160856   -0.024671   -0.008470   -0.507182
11
* Frequency(19) 1006.3394
C     1.352330    0.574194    0.001414   -0.025432    0.010340    0.125989
C     1.182030   -0.801460    0.032659    0.016887   -0.028669   -0.335670
N     0.008980   -1.454891    0.115673    0.004624   -0.002381    0.029027
C    -1.132852   -0.713412    0.031493   -0.008862    0.008115    0.077807
N    -0.992089    0.679570   -0.095778    0.018905    0.011569   -0.018973
C     0.194543    1.409442   -0.114161    0.002312   -0.001304    0.039188
O    -2.274217   -1.202146    0.025407   -0.007302   -0.007708   -0.015919
O     0.161441    2.644956   -0.226047   -0.001906   -0.006182   -0.007402
H     2.071126   -1.400397    0.479852   -0.026616    0.179756    1.886989
H    -1.850221    1.222674   -0.169407    0.050347    0.058748   -0.044946
H     2.341835    1.030968   -0.114742   -0.024671   -0.008470   -0.507182
11
* Frequency(19) 1006.3394
C     1.355101    0.573067   -0.012316   -0.025432    0.010340    0.125989
C     1.180190   -0.798336    0.069238    0.016887   -0.028669   -0.335670
N     0.008476   -1.454631    0.112510    0.004624   -0.002381    0.029027
C    -1.131886   -0.714297    0.023014   -0.008862    0.008115    0.077807
N    -0.994149    0.678309   -0.093710    0.018905    0.011569   -0.018973
C     0.194291    1.409584   -0.118431    0.002312   -0.001304    0.039188
O    -2.273422   -1.201306    0.027142   -0.007302   -0.007708   -0.015919
O     0.161648    2.645629   -0.225240   -0.001906   -0.006182   -0.007402
H     2.074026   -1.419985    0.274220   -0.026616    0.179756    1.886989
H    -1.855708    1.216272   -0.164509    0.050347    0.058748   -0.044946
H     2.344523    1.031891   -0.059472   -0.024671   -0.008470   -0.507182
11
* Frequency(19) 1006.3394
C     1.358032    0.571876   -0.026832   -0.025432    0.010340    0.125989
C     1.178244   -0.795033    0.107913    0.016887   -0.028669   -0.335670
N     0.007944   -1.454357    0.109166    0.004624   -0.002381    0.029027
C    -1.130865   -0.715232    0.014049   -0.008862    0.008115    0.077807
N    -0.996327    0.676976   -0.091524    0.018905    0.011569   -0.018973
C     0.194024    1.409735   -0.122946    0.002312   -0.001304    0.039188
O    -2.272580   -1.200418    0.028976   -0.007302   -0.007708   -0.015919
O     0.161868    2.646342   -0.224388   -0.001906   -0.006182   -0.007402
H     2.077093   -1.440696    0.056809   -0.026616    0.179756    1.886989
H    -1.861508    1.209503   -0.159331    0.050347    0.058748   -0.044946
H     2.347366    1.032867   -0.001037   -0.024671   -0.008470   -0.507182
11
* Frequency(19) 1006.3394
C     1.360803    0.570749   -0.040561   -0.025432    0.010340    0.125989
C     1.176404   -0.791909    0.144492    0.016887   -0.028669   -0.335670
N     0.007440   -1.454098    0.106003    0.004624   -0.002381    0.029027
C    -1.129900   -0.716116    0.005570   -0.008862    0.008115    0.077807
N    -0.998387    0.675715   -0.089456    0.018905    0.011569   -0.018973
C     0.193772    1.409877   -0.127217    0.002312   -0.001304    0.039188
O    -2.271785   -1.199578    0.030711   -0.007302   -0.007708   -0.015919
O     0.162076    2.647015   -0.223581   -0.001906   -0.006182   -0.007402
H     2.079993   -1.460285   -0.148823   -0.026616    0.179756    1.886989
H    -1.866995    1.203101   -0.154433    0.050347    0.058748   -0.044946
H     2.350054    1.033790    0.054233   -0.024671   -0.008470   -0.507182
11
* Frequency(19) 1006.3394
C     1.363115    0.569809   -0.052016   -0.025432    0.010340    0.125989
C     1.174869   -0.789302    0.175011    0.016887   -0.028669   -0.335670
N     0.007019   -1.453881    0.103363    0.004624   -0.002381    0.029027
C    -1.129094   -0.716854   -0.001504   -0.008862    0.008115    0.077807
N    -1.000106    0.674664   -0.087731    0.018905    0.011569   -0.018973
C     0.193562    1.409995   -0.130780    0.002312   -0.001304    0.039188
O    -2.271121   -1.198878    0.032158   -0.007302   -0.007708   -0.015919
O     0.162249    2.647577   -0.222908   -0.001906   -0.006182   -0.007402
H     2.082413   -1.476629   -0.320391   -0.026616    0.179756    1.886989
H    -1.871573    1.197760   -0.150347    0.050347    0.058748   -0.044946
H     2.352297    1.034560    0.100346   -0.024671   -0.008470   -0.507182
11
* Frequency(19) 1006.3394
C     1.364718    0.569158   -0.059956   -0.025432    0.010340    0.125989
C     1.173805   -0.787496    0.196164    0.016887   -0.028669   -0.335670
N     0.006728   -1.453731    0.101534    0.004624   -0.002381    0.029027
C    -1.128535   -0.717365   -0.006407   -0.008862    0.008115    0.077807
N    -1.001298    0.673935   -0.086536    0.018905    0.011569   -0.018973
C     0.193417    1.410078   -0.133249    0.002312   -0.001304    0.039188
O    -2.270661   -1.198392    0.033161   -0.007302   -0.007708   -0.015919
O     0.162369    2.647967   -0.222441   -0.001906   -0.006182   -0.007402
H     2.084090   -1.487956   -0.439304   -0.026616    0.179756    1.886989
H    -1.874745    1.194058   -0.147514    0.050347    0.058748   -0.044946
H     2.353852    1.035094    0.132308   -0.024671   -0.008470   -0.507182
11
* Frequency(19) 1006.3394
C     1.365437    0.568865   -0.063519   -0.025432    0.010340    0.125989
C     1.173327   -0.786685    0.205658    0.016887   -0.028669   -0.335670
N     0.006597   -1.453664    0.100713    0.004624   -0.002381    0.029027
C    -1.128285   -0.717595   -0.008608   -0.008862    0.008115    0.077807
N    -1.001832    0.673607   -0.085999    0.018905    0.011569   -0.018973
C     0.193351    1.410114   -0.134358    0.002312   -0.001304    0.039188
O    -2.270454   -1.198174    0.033611   -0.007302   -0.007708   -0.015919
O     0.162423    2.648142   -0.222232   -0.001906   -0.006182   -0.007402
H     2.084843   -1.493041   -0.492676   -0.026616    0.179756    1.886989
H    -1.876169    1.192396   -0.146243    0.050347    0.058748   -0.044946
H     2.354550    1.035334    0.146653   -0.024671   -0.008470   -0.507182
11
* Frequency(19) 1006.3394
C     1.365195    0.568964   -0.062320   -0.025432    0.010340    0.125989
C     1.173488   -0.786958    0.202465    0.016887   -0.028669   -0.335670
N     0.006641   -1.453686    0.100989    0.004624   -0.002381    0.029027
C    -1.128369   -0.717517   -0.007867   -0.008862    0.008115    0.077807
N    -1.001652    0.673717   -0.086180    0.018905    0.011569   -0.018973
C     0.193373    1.410102   -0.133985    0.002312   -0.001304    0.039188
O    -2.270524   -1.198247    0.033460   -0.007302   -0.007708   -0.015919
O     0.162405    2.648083   -0.222303   -0.001906   -0.006182   -0.007402
H     2.084590   -1.491330   -0.474722   -0.026616    0.179756    1.886989
H    -1.875690    1.192955   -0.146671    0.050347    0.058748   -0.044946
H     2.354315    1.035253    0.141827   -0.024671   -0.008470   -0.507182
11
* Frequency(19) 1006.3394
C     1.364018    0.569442   -0.056489   -0.025432    0.010340    0.125989
C     1.174269   -0.788285    0.186929    0.016887   -0.028669   -0.335670
N     0.006855   -1.453796    0.102333    0.004624   -0.002381    0.029027
C    -1.128779   -0.717142   -0.004266   -0.008862    0.008115    0.077807
N    -1.000778    0.674253   -0.087058    0.018905    0.011569   -0.018973
C     0.193480    1.410042   -0.132171    0.002312   -0.001304    0.039188
O    -2.270861   -1.198604    0.032723   -0.007302   -0.007708   -0.015919
O     0.162317    2.647797   -0.222645   -0.001906   -0.006182   -0.007402
H     2.083358   -1.483011   -0.387389   -0.026616    0.179756    1.886989
H    -1.873360    1.195674   -0.148751    0.050347    0.058748   -0.044946
H     2.353173    1.034861    0.118354   -0.024671   -0.008470   -0.507182
11
* Frequency(19) 1006.3394
C     1.362034    0.570249   -0.046658   -0.025432    0.010340    0.125989
C     1.175587   -0.790522    0.160736    0.016887   -0.028669   -0.335670
N     0.007216   -1.453982    0.104598    0.004624   -0.002381    0.029027
C    -1.129471   -0.716509    0.001805   -0.008862    0.008115    0.077807
N    -0.999302    0.675156   -0.088538    0.018905    0.011569   -0.018973
C     0.193661    1.409940   -0.129113    0.002312   -0.001304    0.039188
O    -2.271431   -1.199205    0.031481   -0.007302   -0.007708   -0.015919
O     0.162168    2.647314   -0.223223   -0.001906   -0.006182   -0.007402
H     2.081281   -1.468984   -0.240140   -0.026616    0.179756    1.886989
H    -1.869431    1.200258   -0.152258    0.050347    0.058748   -0.044946
H     2.351248    1.034200    0.078777   -0.024671   -0.008470   -0.507182
11
* Frequency(19) 1006.3394
C     1.359457    0.571297   -0.033892   -0.025432    0.010340    0.125989
C     1.177298   -0.793427    0.126722    0.016887   -0.028669   -0.335670
N     0.007684   -1.454224    0.107539    0.004624   -0.002381    0.029027
C    -1.130369   -0.715686    0.009689   -0.008862    0.008115    0.077807
N    -0.997387    0.676328   -0.090461    0.018905    0.011569   -0.018973
C     0.193895    1.409808   -0.125142    0.002312   -0.001304    0.039188
O    -2.272171   -1.199986    0.029868   -0.007302   -0.007708   -0.015919
O     0.161975    2.646688   -0.223973   -0.001906   -0.006182   -0.007402
H     2.078584   -1.450769   -0.048932   -0.026616    0.179756    1.886989
H    -1.864330    1.206211   -0.156812    0.050347    0.058748   -0.044946
H     2.348748    1.033342    0.027384   -0.024671   -0.008470   -0.507182
11
* Frequency(19) 1006.3394
C     1.356566    0.572472   -0.019574   -0.025432    0.010340    0.125989
C     1.179217   -0.796685    0.088575    0.016887   -0.028669   -0.335670
N     0.008210   -1.454494    0.110838    0.004624   -0.002381    0.029027
C    -1.131376   -0.714764    0.018532   -0.008862    0.008115    0.077807
N    -0.995238    0.677642   -0.092617    0.018905    0.011569   -0.018973
C     0.194158    1.409660   -0.120689    0.002312   -0.001304    0.039188
O    -2.273001   -1.200862    0.028059   -0.007302   -0.007708   -0.015919
O     0.161758    2.645985   -0.224814   -0.001906   -0.006182   -0.007402
H     2.075560   -1.430341    0.165515   -0.026616    0.179756    1.886989
H    -1.858608    1.212888   -0.161920    0.050347    0.058748   -0.044946
H     2.345944    1.032379   -0.030255   -0.024671   -0.008470   -0.507182
