11
* (null), Energy   -1000.0000000
C     1.589770    0.404289    0.010476    0.411782    0.014539    0.043502
C     1.411370   -0.965186    0.118323   -0.142198    0.019747   -0.094639
N     0.241399   -1.624530    0.140582   -0.102790    0.064260   -0.000686
C    -0.900298   -0.884733    0.048827    0.122225   -0.026669    0.026533
N    -0.762264    0.508959   -0.063346   -0.346173   -0.225462    0.004267
C     0.427306    1.242907   -0.091179   -0.057524    0.080527    0.002172
O    -2.041444   -1.368814    0.058335    0.143382    0.115168   -0.010041
O     0.393949    2.478247   -0.194845    0.037624    0.090463   -0.008490
H     2.308617   -1.598423    0.195226   -0.449658   -0.343115    0.518162
H    -1.625843    1.043584   -0.132009   -0.897092   -1.104180    0.054102
H     2.579572    0.863274    0.000136    0.729280   -0.626725   -0.060615
11
* Frequency(20) 1005.7581
C     1.636567    0.405941    0.015420    0.411782    0.014539    0.043502
C     1.395210   -0.962942    0.107568   -0.142198    0.019747   -0.094639
N     0.229717   -1.617227    0.140504   -0.102790    0.064260   -0.000686
C    -0.886408   -0.887764    0.051842    0.122225   -0.026669    0.026533
N    -0.801605    0.483336   -0.062861   -0.346173   -0.225462    0.004267
C     0.420768    1.252058   -0.090932   -0.057524    0.080527    0.002172
O    -2.025149   -1.355726    0.057194    0.143382    0.115168   -0.010041
O     0.398224    2.488527   -0.195810    0.037624    0.090463   -0.008490
H     2.257516   -1.637416    0.254112   -0.449658   -0.343115    0.518162
H    -1.727793    0.918100   -0.125861   -0.897092   -1.104180    0.054102
H     2.662451    0.792050   -0.006752    0.729280   -0.626725   -0.060615
11
* Frequency(20) 1005.7581
C     1.678293    0.407414    0.019828    0.411782    0.014539    0.043502
C     1.380802   -0.960941    0.097978   -0.142198    0.019747   -0.094639
N     0.219302   -1.610716    0.140435   -0.102790    0.064260   -0.000686
C    -0.874023   -0.890467    0.054531    0.122225   -0.026669    0.026533
N    -0.836683    0.460490   -0.062429   -0.346173   -0.225462    0.004267
C     0.414940    1.260218   -0.090712   -0.057524    0.080527    0.002172
O    -2.010620   -1.344056    0.056176    0.143382    0.115168   -0.010041
O     0.402037    2.497694   -0.196670    0.037624    0.090463   -0.008490
H     2.211952   -1.672183    0.306617   -0.449658   -0.343115    0.518162
H    -1.818695    0.806214   -0.120379   -0.897092   -1.104180    0.054102
H     2.736349    0.728544   -0.012894    0.729280   -0.626725   -0.060615
11
* Frequency(20) 1005.7581
C     1.710426    0.408549    0.023222    0.411782    0.014539    0.043502
C     1.369705   -0.959400    0.090593   -0.142198    0.019747   -0.094639
N     0.211281   -1.605701    0.140381   -0.102790    0.064260   -0.000686
C    -0.864485   -0.892548    0.056601    0.122225   -0.026669    0.026533
N    -0.863696    0.442896   -0.062096   -0.346173   -0.225462    0.004267
C     0.410451    1.266502   -0.090542   -0.057524    0.080527    0.002172
O    -1.999431   -1.335068    0.055393    0.143382    0.115168   -0.010041
O     0.404973    2.504753   -0.197332    0.037624    0.090463   -0.008490
H     2.176864   -1.698958    0.347051   -0.449658   -0.343115    0.518162
H    -1.888698    0.720050   -0.116157   -0.897092   -1.104180    0.054102
H     2.793258    0.679639   -0.017624    0.729280   -0.626725   -0.060615
11
* Frequency(20) 1005.7581
C     1.729484    0.409222    0.025236    0.411782    0.014539    0.043502
C     1.363124   -0.958486    0.086213   -0.142198    0.019747   -0.094639
N     0.206523   -1.602727    0.140350   -0.102790    0.064260   -0.000686
C    -0.858828   -0.893782    0.057829    0.122225   -0.026669    0.026533
N    -0.879717    0.432462   -0.061898   -0.346173   -0.225462    0.004267
C     0.407788    1.270229   -0.090442   -0.057524    0.080527    0.002172
O    -1.992795   -1.329738    0.054928    0.143382    0.115168   -0.010041
O     0.406714    2.508940   -0.197725    0.037624    0.090463   -0.008490
H     2.156053   -1.714838    0.371033   -0.449658   -0.343115    0.518162
H    -1.930218    0.668947   -0.113653   -0.897092   -1.104180    0.054102
H     2.827010    0.650633   -0.020430    0.729280   -0.626725   -0.060615
11
* Frequency(20) 1005.7581
C     1.733402    0.409360    0.025650    0.411782    0.014539    0.043502
C     1.361771   -0.958299    0.085312   -0.142198    0.019747   -0.094639
N     0.205545   -1.602116    0.140343   -0.102790    0.064260   -0.000686
C    -0.857665   -0.894036    0.058082    0.122225   -0.026669    0.026533
N    -0.883011    0.430316   -0.061858   -0.346173   -0.225462    0.004267
C     0.407241    1.270995   -0.090421   -0.057524    0.080527    0.002172
O    -1.991431   -1.328643    0.054833    0.143382    0.115168   -0.010041
O     0.407072    2.509800   -0.197806    0.037624    0.090463   -0.008490
H     2.151774   -1.718103    0.375963   -0.449658   -0.343115    0.518162
H    -1.938753    0.658441   -0.113138   -0.897092   -1.104180    0.054102
H     2.833949    0.644670   -0.021006    0.729280   -0.626725   -0.060615
11
* Frequency(20) 1005.7581
C     1.721755    0.408949    0.024419    0.411782    0.014539    0.043502
C     1.365793   -0.958857    0.087989   -0.142198    0.019747   -0.094639
N     0.208453   -1.603933    0.140362   -0.102790    0.064260   -0.000686
C    -0.861122   -0.893281    0.057331    0.122225   -0.026669    0.026533
N    -0.873220    0.436693   -0.061978   -0.346173   -0.225462    0.004267
C     0.408868    1.268717   -0.090483   -0.057524    0.080527    0.002172
O    -1.995487   -1.331900    0.055117    0.143382    0.115168   -0.010041
O     0.406008    2.507242   -0.197566    0.037624    0.090463   -0.008490
H     2.164493   -1.708398    0.361307   -0.449658   -0.343115    0.518162
H    -1.913380    0.689672   -0.114669   -0.897092   -1.104180    0.054102
H     2.813322    0.662396   -0.019292    0.729280   -0.626725   -0.060615
11
* Frequency(20) 1005.7581
C     1.695805    0.408032    0.021678    0.411782    0.014539    0.043502
C     1.374754   -0.960101    0.093953   -0.142198    0.019747   -0.094639
N     0.214930   -1.607983    0.140406   -0.102790    0.064260   -0.000686
C    -0.868824   -0.891601    0.055659    0.122225   -0.026669    0.026533
N    -0.851405    0.450901   -0.062247   -0.346173   -0.225462    0.004267
C     0.412493    1.263643   -0.090619   -0.057524    0.080527    0.002172
O    -2.004522   -1.339158    0.055749    0.143382    0.115168   -0.010041
O     0.403637    2.501541   -0.197031    0.037624    0.090463   -0.008490
H     2.192829   -1.686776    0.328654   -0.449658   -0.343115    0.518162
H    -1.856847    0.759254   -0.118078   -0.897092   -1.104180    0.054102
H     2.767364    0.701890   -0.015472    0.729280   -0.626725   -0.060615
11
* Frequency(20) 1005.7581
C     1.658366    0.406711    0.017723    0.411782    0.014539    0.043502
C     1.387683   -0.961897    0.102558   -0.142198    0.019747   -0.094639
N     0.224276   -1.613825    0.140468   -0.102790    0.064260   -0.000686
C    -0.879937   -0.889176    0.053247    0.122225   -0.026669    0.026533
N    -0.819930    0.471401   -0.062635   -0.346173   -0.225462    0.004267
C     0.417723    1.256321   -0.090817   -0.057524    0.080527    0.002172
O    -2.017559   -1.349629    0.056662    0.143382    0.115168   -0.010041
O     0.400216    2.493316   -0.196259    0.037624    0.090463   -0.008490
H     2.233713   -1.655579    0.281542   -0.449658   -0.343115    0.518162
H    -1.775282    0.859648   -0.122997   -0.897092   -1.104180    0.054102
H     2.701057    0.758873   -0.009961    0.729280   -0.626725   -0.060615
11
* Frequency(20) 1005.7581
C     1.613492    0.405126    0.012982    0.411782    0.014539    0.043502
C     1.403179   -0.964049    0.112871   -0.142198    0.019747   -0.094639
N     0.235477   -1.620828    0.140543   -0.102790    0.064260   -0.000686
C    -0.893257   -0.886270    0.050355    0.122225   -0.026669    0.026533
N    -0.782207    0.495970   -0.063100   -0.346173   -0.225462    0.004267
C     0.423992    1.247546   -0.091054   -0.057524    0.080527    0.002172
O    -2.033184   -1.362179    0.057757    0.143382    0.115168   -0.010041
O     0.396116    2.483458   -0.195334    0.037624    0.090463   -0.008490
H     2.282713   -1.618189    0.225076   -0.449658   -0.343115    0.518162
H    -1.677523    0.979975   -0.128893   -0.897092   -1.104180    0.054102
H     2.621585    0.827170   -0.003356    0.729280   -0.626725   -0.060615
11
* Frequency(20) 1005.7581
C     1.566048    0.403451    0.007970    0.411782    0.014539    0.043502
C     1.419562   -0.966324    0.123775   -0.142198    0.019747   -0.094639
N     0.247320   -1.628232    0.140622   -0.102790    0.064260   -0.000686
C    -0.907339   -0.883197    0.047298    0.122225   -0.026669    0.026533
N    -0.742322    0.521947   -0.063592   -0.346173   -0.225462    0.004267
C     0.430620    1.238268   -0.091304   -0.057524    0.080527    0.002172
O    -2.049704   -1.375448    0.058913    0.143382    0.115168   -0.010041
O     0.391781    2.473035   -0.194356    0.037624    0.090463   -0.008490
H     2.334521   -1.578656    0.165376   -0.449658   -0.343115    0.518162
H    -1.574163    1.107194   -0.135126   -0.897092   -1.104180    0.054102
H     2.537560    0.899379    0.003628    0.729280   -0.626725   -0.060615
11
* Frequency(20) 1005.7581
C     1.521175    0.401867    0.003229    0.411782    0.014539    0.043502
C     1.435058   -0.968476    0.134088   -0.142198    0.019747   -0.094639
N     0.258522   -1.635234    0.140697   -0.102790    0.064260   -0.000686
C    -0.920658   -0.880291    0.044407    0.122225   -0.026669    0.026533
N    -0.704598    0.546517   -0.064057   -0.346173   -0.225462    0.004267
C     0.436888    1.229493   -0.091540   -0.057524    0.080527    0.002172
O    -2.065328   -1.387999    0.060008    0.143382    0.115168   -0.010041
O     0.387681    2.463177   -0.193431    0.037624    0.090463   -0.008490
H     2.383522   -1.541266    0.108910   -0.449658   -0.343115    0.518162
H    -1.476404    1.227521   -0.141022   -0.897092   -1.104180    0.054102
H     2.458088    0.967675    0.010234    0.729280   -0.626725   -0.060615
11
* Frequency(20) 1005.7581
C     1.483735    0.400545   -0.000726    0.411782    0.014539    0.043502
C     1.447987   -0.970271    0.142693   -0.142198    0.019747   -0.094639
N     0.267868   -1.641077    0.140759   -0.102790    0.064260   -0.000686
C    -0.931771   -0.877866    0.041994    0.122225   -0.026669    0.026533
N    -0.673124    0.567016   -0.064445   -0.346173   -0.225462    0.004267
C     0.442118    1.222171   -0.091738   -0.057524    0.080527    0.002172
O    -2.078365   -1.398470    0.060921    0.143382    0.115168   -0.010041
O     0.384260    2.454952   -0.192659    0.037624    0.090463   -0.008490
H     2.424406   -1.510069    0.061797   -0.449658   -0.343115    0.518162
H    -1.394839    1.327915   -0.145941   -0.897092   -1.104180    0.054102
H     2.391780    1.024658    0.015745    0.729280   -0.626725   -0.060615
11
* Frequency(20) 1005.7581
C     1.457785    0.399629   -0.003468    0.411782    0.014539    0.043502
C     1.456948   -0.971516    0.148657   -0.142198    0.019747   -0.094639
N     0.274345   -1.645126    0.140802   -0.102790    0.064260   -0.000686
C    -0.939474   -0.876186    0.040322    0.122225   -0.026669    0.026533
N    -0.651309    0.581224   -0.064714   -0.346173   -0.225462    0.004267
C     0.445743    1.217097   -0.091875   -0.057524    0.080527    0.002172
O    -2.087401   -1.405728    0.061553    0.143382    0.115168   -0.010041
O     0.381889    2.449252   -0.192124    0.037624    0.090463   -0.008490
H     2.452742   -1.488447    0.029144   -0.449658   -0.343115    0.518162
H    -1.338306    1.397497   -0.149350   -0.897092   -1.104180    0.054102
H     2.345823    1.064153    0.019565    0.729280   -0.626725   -0.060615
11
* Frequency(20) 1005.7581
C     1.446139    0.399218   -0.004698    0.411782    0.014539    0.043502
C     1.460970   -0.972074    0.151333   -0.142198    0.019747   -0.094639
N     0.277253   -1.646944    0.140822   -0.102790    0.064260   -0.000686
C    -0.942931   -0.875431    0.039572    0.122225   -0.026669    0.026533
N    -0.641518    0.587601   -0.064834   -0.346173   -0.225462    0.004267
C     0.447370    1.214819   -0.091936   -0.057524    0.080527    0.002172
O    -2.091456   -1.408985    0.061837    0.143382    0.115168   -0.010041
O     0.380825    2.446693   -0.191883    0.037624    0.090463   -0.008490
H     2.465460   -1.478743    0.014489   -0.449658   -0.343115    0.518162
H    -1.312933    1.428728   -0.150881   -0.897092   -1.104180    0.054102
H     2.325196    1.081879    0.021279    0.729280   -0.626725   -0.060615
11
* Frequency(20) 1005.7581
C     1.450056    0.399356   -0.004284    0.411782    0.014539    0.043502
C     1.459617   -0.971886    0.150433   -0.142198    0.019747   -0.094639
N     0.276275   -1.646332    0.140815   -0.102790    0.064260   -0.000686
C    -0.941768   -0.875685    0.039824    0.122225   -0.026669    0.026533
N    -0.644811    0.585456   -0.064794   -0.346173   -0.225462    0.004267
C     0.446823    1.215585   -0.091916   -0.057524    0.080527    0.002172
O    -2.090092   -1.407889    0.061742    0.143382    0.115168   -0.010041
O     0.381183    2.447554   -0.191964    0.037624    0.090463   -0.008490
H     2.461182   -1.482007    0.019419   -0.449658   -0.343115    0.518162
H    -1.321469    1.418222   -0.150366   -0.897092   -1.104180    0.054102
H     2.332135    1.075916    0.020702    0.729280   -0.626725   -0.060615
11
* Frequency(20) 1005.7581
C     1.469115    0.400029   -0.002271    0.411782    0.014539    0.043502
C     1.453035   -0.970972    0.146053   -0.142198    0.019747   -0.094639
N     0.271517   -1.643358    0.140783   -0.102790    0.064260   -0.000686
C    -0.936111   -0.876919    0.041052    0.122225   -0.026669    0.026533
N    -0.660833    0.575021   -0.064596   -0.346173   -0.225462    0.004267
C     0.444161    1.219312   -0.091815   -0.057524    0.080527    0.002172
O    -2.083456   -1.402559    0.061277    0.143382    0.115168   -0.010041
O     0.382924    2.451740   -0.192357    0.037624    0.090463   -0.008490
H     2.440371   -1.497887    0.043400   -0.449658   -0.343115    0.518162
H    -1.362988    1.367118   -0.147862   -0.897092   -1.104180    0.054102
H     2.365887    1.046910    0.017897    0.729280   -0.626725   -0.060615
11
* Frequency(20) 1005.7581
C     1.501247    0.401163    0.001124    0.411782    0.014539    0.043502
C     1.441939   -0.969431    0.138668   -0.142198    0.019747   -0.094639
N     0.263496   -1.638344    0.140730   -0.102790    0.064260   -0.000686
C    -0.926573   -0.879000    0.043123    0.122225   -0.026669    0.026533
N    -0.687846    0.557427   -0.064263   -0.346173   -0.225462    0.004267
C     0.439672    1.225596   -0.091646   -0.057524    0.080527    0.002172
O    -2.072267   -1.393572    0.060494    0.143382    0.115168   -0.010041
O     0.385860    2.458800   -0.193020    0.037624    0.090463   -0.008490
H     2.405282   -1.524662    0.083834   -0.449658   -0.343115    0.518162
H    -1.432991    1.280955   -0.143640   -0.897092   -1.104180    0.054102
H     2.422796    0.998004    0.013167    0.729280   -0.626725   -0.060615
11
* Frequency(20) 1005.7581
C     1.542973    0.402636    0.005532    0.411782    0.014539    0.043502
C     1.427530   -0.967431    0.129078   -0.142198    0.019747   -0.094639
N     0.253080   -1.631832    0.140660   -0.102790    0.064260   -0.000686
C    -0.914188   -0.881703    0.045811    0.122225   -0.026669    0.026533
N    -0.722924    0.534581   -0.063831   -0.346173   -0.225462    0.004267
C     0.433843    1.233756   -0.091426   -0.057524    0.080527    0.002172
O    -2.057738   -1.381902    0.059476    0.143382    0.115168   -0.010041
O     0.389673    2.467966   -0.193880    0.037624    0.090463   -0.008490
H     2.359719   -1.559429    0.136339   -0.449658   -0.343115    0.518162
H    -1.523893    1.169069   -0.138158   -0.897092   -1.104180    0.054102
H     2.496694    0.934498    0.007025    0.729280   -0.626725   -0.060615
11
* Frequency(20) 1005.7581
C     1.589770    0.404289    0.010476    0.411782    0.014539    0.043502
C     1.411370   -0.965186    0.118323   -0.142198    0.019747   -0.094639
N     0.241399   -1.624530    0.140582   -0.102790    0.064260   -0.000686
C    -0.900298   -0.884733    0.048827    0.122225   -0.026669    0.026533
N    -0.762264    0.508959   -0.063346   -0.346173   -0.225462    0.004267
C     0.427306    1.242907   -0.091179   -0.057524    0.080527    0.002172
O    -2.041444   -1.368814    0.058335    0.143382    0.115168   -0.010041
O     0.393949    2.478247   -0.194845    0.037624    0.090463   -0.008490
H     2.308617   -1.598423    0.195226   -0.449658   -0.343115    0.518162
H    -1.625843    1.043584   -0.132009   -0.897092   -1.104180    0.054102
H     2.579572    0.863274    0.000136    0.729280   -0.626725   -0.060615
