11
* (null), Energy   -1000.0000000
C     1.589770    0.404289    0.010476    0.009468   -0.257637    0.021454
C     1.411370   -0.965186    0.118323   -0.091053    0.076327   -0.008700
N     0.241399   -1.624530    0.140582   -0.048429    0.096284   -0.009394
C    -0.900298   -0.884733    0.048827    0.134641   -0.209009    0.021105
N    -0.762264    0.508959   -0.063346    0.009536    0.284706   -0.023480
C     0.427306    1.242907   -0.091179    0.286130    0.059235    0.003223
O    -2.041444   -1.368814    0.058335   -0.074237   -0.018888   -0.000461
O     0.393949    2.478247   -0.194845   -0.075262   -0.085834    0.004931
H     2.308617   -1.598423    0.195226    0.287877    0.638029   -0.044905
H    -1.625843    1.043584   -0.132009   -0.900842   -1.168662    0.072397
H     2.579572    0.863274    0.000136   -0.515361    0.843706   -0.083477
11
* Frequency(24) 1353.8821
C     1.590846    0.375010    0.012914    0.009468   -0.257637    0.021454
C     1.401023   -0.956512    0.117334   -0.091053    0.076327   -0.008700
N     0.235895   -1.613587    0.139515   -0.048429    0.096284   -0.009394
C    -0.884997   -0.908486    0.051225    0.134641   -0.209009    0.021105
N    -0.761181    0.541314   -0.066014    0.009536    0.284706   -0.023480
C     0.459823    1.249639   -0.090812    0.286130    0.059235    0.003223
O    -2.049880   -1.370960    0.058283   -0.074237   -0.018888   -0.000461
O     0.385395    2.468492   -0.194284   -0.075262   -0.085834    0.004931
H     2.341333   -1.525914    0.190123    0.287877    0.638029   -0.044905
H    -1.728219    0.910772   -0.123782   -0.900842   -1.168662    0.072397
H     2.521004    0.959157   -0.009350   -0.515361    0.843706   -0.083477
11
* Frequency(24) 1353.8821
C     1.591806    0.348903    0.015088    0.009468   -0.257637    0.021454
C     1.391796   -0.948778    0.116453   -0.091053    0.076327   -0.008700
N     0.230988   -1.603831    0.138563   -0.048429    0.096284   -0.009394
C    -0.871354   -0.929665    0.053364    0.134641   -0.209009    0.021105
N    -0.760214    0.570163   -0.068394    0.009536    0.284706   -0.023480
C     0.488816    1.255641   -0.090486    0.286130    0.059235    0.003223
O    -2.057403   -1.372874    0.058236   -0.074237   -0.018888   -0.000461
O     0.377769    2.459795   -0.193785   -0.075262   -0.085834    0.004931
H     2.370504   -1.461263    0.185572    0.287877    0.638029   -0.044905
H    -1.819501    0.792352   -0.116446   -0.900842   -1.168662    0.072397
H     2.468783    1.044649   -0.017809   -0.515361    0.843706   -0.083477
11
* Frequency(24) 1353.8821
C     1.592544    0.328799    0.016762    0.009468   -0.257637    0.021454
C     1.384691   -0.942822    0.115774   -0.091053    0.076327   -0.008700
N     0.227209   -1.596318    0.137830   -0.048429    0.096284   -0.009394
C    -0.860847   -0.945975    0.055011    0.134641   -0.209009    0.021105
N    -0.759470    0.592380   -0.070226    0.009536    0.284706   -0.023480
C     0.511144    1.260263   -0.090234    0.286130    0.059235    0.003223
O    -2.063196   -1.374348    0.058200   -0.074237   -0.018888   -0.000461
O     0.371896    2.453097   -0.193400   -0.075262   -0.085834    0.004931
H     2.392968   -1.411475    0.182068    0.287877    0.638029   -0.044905
H    -1.889797    0.701157   -0.110796   -0.900842   -1.168662    0.072397
H     2.428568    1.110487   -0.024323   -0.515361    0.843706   -0.083477
11
* Frequency(24) 1353.8821
C     1.592983    0.316875    0.017755    0.009468   -0.257637    0.021454
C     1.380477   -0.939289    0.115371   -0.091053    0.076327   -0.008700
N     0.224968   -1.591861    0.137395   -0.048429    0.096284   -0.009394
C    -0.854616   -0.955648    0.055987    0.134641   -0.209009    0.021105
N    -0.759029    0.605557   -0.071313    0.009536    0.284706   -0.023480
C     0.524387    1.263005   -0.090085    0.286130    0.059235    0.003223
O    -2.066632   -1.375222    0.058179   -0.074237   -0.018888   -0.000461
O     0.368413    2.449124   -0.193172   -0.075262   -0.085834    0.004931
H     2.406291   -1.381946    0.179990    0.287877    0.638029   -0.044905
H    -1.931490    0.647069   -0.107446   -0.900842   -1.168662    0.072397
H     2.404716    1.149535   -0.028187   -0.515361    0.843706   -0.083477
11
* Frequency(24) 1353.8821
C     1.593073    0.314424    0.017959    0.009468   -0.257637    0.021454
C     1.379611   -0.938563    0.115288   -0.091053    0.076327   -0.008700
N     0.224507   -1.590945    0.137306   -0.048429    0.096284   -0.009394
C    -0.853335   -0.957637    0.056188    0.134641   -0.209009    0.021105
N    -0.758938    0.608266   -0.071536    0.009536    0.284706   -0.023480
C     0.527109    1.263568   -0.090055    0.286130    0.059235    0.003223
O    -2.067338   -1.375402    0.058174   -0.074237   -0.018888   -0.000461
O     0.367697    2.448307   -0.193125   -0.075262   -0.085834    0.004931
H     2.409030   -1.375875    0.179563    0.287877    0.638029   -0.044905
H    -1.940061    0.635950   -0.106757   -0.900842   -1.168662    0.072397
H     2.399812    1.157563   -0.028981   -0.515361    0.843706   -0.083477
11
* Frequency(24) 1353.8821
C     1.592805    0.321711    0.017352    0.009468   -0.257637    0.021454
C     1.382186   -0.940722    0.115534   -0.091053    0.076327   -0.008700
N     0.225877   -1.593669    0.137571   -0.048429    0.096284   -0.009394
C    -0.857143   -0.951725    0.055591    0.134641   -0.209009    0.021105
N    -0.759208    0.600213   -0.070872    0.009536    0.284706   -0.023480
C     0.519016    1.261893   -0.090146    0.286130    0.059235    0.003223
O    -2.065238   -1.374868    0.058187   -0.074237   -0.018888   -0.000461
O     0.369825    2.450735   -0.193264   -0.075262   -0.085834    0.004931
H     2.400888   -1.393921    0.180833    0.287877    0.638029   -0.044905
H    -1.914582    0.669004   -0.108805   -0.900842   -1.168662    0.072397
H     2.414389    1.133699   -0.026620   -0.515361    0.843706   -0.083477
11
* Frequency(24) 1353.8821
C     1.592208    0.337946    0.016000    0.009468   -0.257637    0.021454
C     1.387924   -0.945532    0.116083   -0.091053    0.076327   -0.008700
N     0.228928   -1.599736    0.138163   -0.048429    0.096284   -0.009394
C    -0.865627   -0.938554    0.054261    0.134641   -0.209009    0.021105
N    -0.759809    0.582272   -0.069392    0.009536    0.284706   -0.023480
C     0.500985    1.258160   -0.090349    0.286130    0.059235    0.003223
O    -2.060560   -1.373678    0.058216   -0.074237   -0.018888   -0.000461
O     0.374568    2.456144   -0.193575   -0.075262   -0.085834    0.004931
H     2.382747   -1.434128    0.183663    0.287877    0.638029   -0.044905
H    -1.857813    0.742650   -0.113367   -0.900842   -1.168662    0.072397
H     2.446865    1.080531   -0.021359   -0.515361    0.843706   -0.083477
11
* Frequency(24) 1353.8821
C     1.591347    0.361371    0.014050    0.009468   -0.257637    0.021454
C     1.396203   -0.952472    0.116874   -0.091053    0.076327   -0.008700
N     0.233332   -1.608491    0.139017   -0.048429    0.096284   -0.009394
C    -0.877869   -0.919551    0.052342    0.134641   -0.209009    0.021105
N    -0.760676    0.556386   -0.067257    0.009536    0.284706   -0.023480
C     0.474970    1.252774   -0.090642    0.286130    0.059235    0.003223
O    -2.053810   -1.371960    0.058258   -0.074237   -0.018888   -0.000461
O     0.381411    2.463948   -0.194023   -0.075262   -0.085834    0.004931
H     2.356572   -1.492139    0.187745    0.287877    0.638029   -0.044905
H    -1.775907    0.848907   -0.119949   -0.900842   -1.168662    0.072397
H     2.493723    1.003820   -0.013769   -0.515361    0.843706   -0.083477
11
* Frequency(24) 1353.8821
C     1.590316    0.389447    0.011712    0.009468   -0.257637    0.021454
C     1.406125   -0.960789    0.117822   -0.091053    0.076327   -0.008700
N     0.238609   -1.618983    0.140041   -0.048429    0.096284   -0.009394
C    -0.892542   -0.896774    0.050043    0.134641   -0.209009    0.021105
N    -0.761715    0.525360   -0.064699    0.009536    0.284706   -0.023480
C     0.443789    1.246319   -0.090993    0.286130    0.059235    0.003223
O    -2.045720   -1.369902    0.058308   -0.074237   -0.018888   -0.000461
O     0.389613    2.473302   -0.194561   -0.075262   -0.085834    0.004931
H     2.325201   -1.561667    0.192639    0.287877    0.638029   -0.044905
H    -1.677739    0.976260   -0.127839   -0.900842   -1.168662    0.072397
H     2.549883    0.911878   -0.004673   -0.515361    0.843706   -0.083477
11
* Frequency(24) 1353.8821
C     1.589225    0.419131    0.009240    0.009468   -0.257637    0.021454
C     1.416616   -0.969583    0.118824   -0.091053    0.076327   -0.008700
N     0.244189   -1.630076    0.141123   -0.048429    0.096284   -0.009394
C    -0.908054   -0.872693    0.047611    0.134641   -0.209009    0.021105
N    -0.762814    0.492557   -0.061993    0.009536    0.284706   -0.023480
C     0.410822    1.239495   -0.091364    0.286130    0.059235    0.003223
O    -2.037167   -1.367726    0.058362   -0.074237   -0.018888   -0.000461
O     0.398284    2.483191   -0.195129   -0.075262   -0.085834    0.004931
H     2.292033   -1.635178    0.197813    0.287877    0.638029   -0.044905
H    -1.573947    1.110909   -0.136180   -0.900842   -1.168662    0.072397
H     2.609261    0.814670    0.004945   -0.515361    0.843706   -0.083477
11
* Frequency(24) 1353.8821
C     1.588193    0.447206    0.006902    0.009468   -0.257637    0.021454
C     1.426538   -0.977901    0.119772   -0.091053    0.076327   -0.008700
N     0.249466   -1.640569    0.142147   -0.048429    0.096284   -0.009394
C    -0.922727   -0.849916    0.045311    0.134641   -0.209009    0.021105
N    -0.763853    0.461532   -0.059435    0.009536    0.284706   -0.023480
C     0.379642    1.233040   -0.091716    0.286130    0.059235    0.003223
O    -2.029077   -1.365667    0.058412   -0.074237   -0.018888   -0.000461
O     0.406486    2.492545   -0.195666   -0.075262   -0.085834    0.004931
H     2.260662   -1.704706    0.202706    0.287877    0.638029   -0.044905
H    -1.475779    1.238262   -0.144070   -0.900842   -1.168662    0.072397
H     2.665422    0.722728    0.014042   -0.515361    0.843706   -0.083477
11
* Frequency(24) 1353.8821
C     1.587332    0.470631    0.004951    0.009468   -0.257637    0.021454
C     1.434817   -0.984841    0.120563   -0.091053    0.076327   -0.008700
N     0.253869   -1.649323    0.143001   -0.048429    0.096284   -0.009394
C    -0.934968   -0.830913    0.043392    0.134641   -0.209009    0.021105
N    -0.764720    0.435646   -0.057300    0.009536    0.284706   -0.023480
C     0.353626    1.227654   -0.092009    0.286130    0.059235    0.003223
O    -2.022327   -1.363950    0.058454   -0.074237   -0.018888   -0.000461
O     0.413329    2.500349   -0.196114   -0.075262   -0.085834    0.004931
H     2.234488   -1.762717    0.206789    0.287877    0.638029   -0.044905
H    -1.393873    1.344519   -0.150652   -0.900842   -1.168662    0.072397
H     2.712280    0.646017    0.021632   -0.515361    0.843706   -0.083477
11
* Frequency(24) 1353.8821
C     1.586735    0.486867    0.003599    0.009468   -0.257637    0.021454
C     1.440555   -0.989651    0.121111   -0.091053    0.076327   -0.008700
N     0.256921   -1.655391    0.143593   -0.048429    0.096284   -0.009394
C    -0.943453   -0.817742    0.042062    0.134641   -0.209009    0.021105
N    -0.765321    0.417705   -0.055820    0.009536    0.284706   -0.023480
C     0.335595    1.223921   -0.092212    0.286130    0.059235    0.003223
O    -2.017649   -1.362760    0.058483   -0.074237   -0.018888   -0.000461
O     0.418072    2.505758   -0.196425   -0.075262   -0.085834    0.004931
H     2.216347   -1.802924    0.209619    0.287877    0.638029   -0.044905
H    -1.337104    1.418165   -0.155214   -0.900842   -1.168662    0.072397
H     2.744756    0.592849    0.026892   -0.515361    0.843706   -0.083477
11
* Frequency(24) 1353.8821
C     1.586468    0.494154    0.002993    0.009468   -0.257637    0.021454
C     1.443130   -0.991810    0.121357   -0.091053    0.076327   -0.008700
N     0.258291   -1.658114    0.143859   -0.048429    0.096284   -0.009394
C    -0.947261   -0.811830    0.041465    0.134641   -0.209009    0.021105
N    -0.765590    0.409652   -0.055156    0.009536    0.284706   -0.023480
C     0.327502    1.222246   -0.092303    0.286130    0.059235    0.003223
O    -2.015549   -1.362226    0.058496   -0.074237   -0.018888   -0.000461
O     0.420200    2.508186   -0.196565   -0.075262   -0.085834    0.004931
H     2.208205   -1.820970    0.210889    0.287877    0.638029   -0.044905
H    -1.311625    1.451219   -0.157262   -0.900842   -1.168662    0.072397
H     2.759333    0.568986    0.029253   -0.515361    0.843706   -0.083477
11
* Frequency(24) 1353.8821
C     1.586558    0.491702    0.003197    0.009468   -0.257637    0.021454
C     1.442264   -0.991083    0.121275   -0.091053    0.076327   -0.008700
N     0.257830   -1.657198    0.143770   -0.048429    0.096284   -0.009394
C    -0.945980   -0.813819    0.041666    0.134641   -0.209009    0.021105
N    -0.765500    0.412361   -0.055380    0.009536    0.284706   -0.023480
C     0.330225    1.222809   -0.092272    0.286130    0.059235    0.003223
O    -2.016256   -1.362405    0.058491   -0.074237   -0.018888   -0.000461
O     0.419484    2.507369   -0.196518   -0.075262   -0.085834    0.004931
H     2.210944   -1.814899    0.210462    0.287877    0.638029   -0.044905
H    -1.320196    1.440100   -0.156573   -0.900842   -1.168662    0.072397
H     2.754429    0.577013    0.028459   -0.515361    0.843706   -0.083477
11
* Frequency(24) 1353.8821
C     1.586996    0.479778    0.004190    0.009468   -0.257637    0.021454
C     1.438050   -0.987551    0.120872   -0.091053    0.076327   -0.008700
N     0.255589   -1.652742    0.143335   -0.048429    0.096284   -0.009394
C    -0.939749   -0.823492    0.042643    0.134641   -0.209009    0.021105
N    -0.765058    0.425538   -0.056466    0.009536    0.284706   -0.023480
C     0.343467    1.225551   -0.092123    0.286130    0.059235    0.003223
O    -2.019691   -1.363279    0.058470   -0.074237   -0.018888   -0.000461
O     0.416001    2.503397   -0.196290   -0.075262   -0.085834    0.004931
H     2.224267   -1.785370    0.208383    0.287877    0.638029   -0.044905
H    -1.361889    1.386012   -0.153222   -0.900842   -1.168662    0.072397
H     2.730577    0.616061    0.024596   -0.515361    0.843706   -0.083477
11
* Frequency(24) 1353.8821
C     1.587735    0.459674    0.005864    0.009468   -0.257637    0.021454
C     1.430944   -0.981595    0.120193   -0.091053    0.076327   -0.008700
N     0.251810   -1.645228    0.142602   -0.048429    0.096284   -0.009394
C    -0.929242   -0.839802    0.044290    0.134641   -0.209009    0.021105
N    -0.764314    0.447754   -0.058299    0.009536    0.284706   -0.023480
C     0.365795    1.230173   -0.091871    0.286130    0.059235    0.003223
O    -2.025484   -1.364753    0.058434   -0.074237   -0.018888   -0.000461
O     0.410128    2.496699   -0.195905   -0.075262   -0.085834    0.004931
H     2.246731   -1.735582    0.204879    0.287877    0.638029   -0.044905
H    -1.432185    1.294817   -0.147573   -0.900842   -1.168662    0.072397
H     2.690362    0.681899    0.018082   -0.515361    0.843706   -0.083477
11
* Frequency(24) 1353.8821
C     1.588694    0.433568    0.008038    0.009468   -0.257637    0.021454
C     1.421718   -0.973861    0.119312   -0.091053    0.076327   -0.008700
N     0.246903   -1.635472    0.141650   -0.048429    0.096284   -0.009394
C    -0.915599   -0.860981    0.046428    0.134641   -0.209009    0.021105
N    -0.763348    0.476603   -0.060678    0.009536    0.284706   -0.023480
C     0.394789    1.236175   -0.091545    0.286130    0.059235    0.003223
O    -2.033007   -1.366667    0.058387   -0.074237   -0.018888   -0.000461
O     0.402502    2.488001   -0.195405   -0.075262   -0.085834    0.004931
H     2.275902   -1.670931    0.200329    0.287877    0.638029   -0.044905
H    -1.523467    1.176397   -0.140237   -0.900842   -1.168662    0.072397
H     2.638140    0.767391    0.009623   -0.515361    0.843706   -0.083477
11
* Frequency(24) 1353.8821
C     1.589770    0.404289    0.010476    0.009468   -0.257637    0.021454
C     1.411370   -0.965186    0.118323   -0.091053    0.076327   -0.008700
N     0.241399   -1.624530    0.140582   -0.048429    0.096284   -0.009394
C    -0.900298   -0.884733    0.048827    0.134641   -0.209009    0.021105
N    -0.762264    0.508959   -0.063346    0.009536    0.284706   -0.023480
C     0.427306    1.242907   -0.091179    0.286130    0.059235    0.003223
O    -2.041444   -1.368814    0.058335   -0.074237   -0.018888   -0.000461
O     0.393949    2.478247   -0.194845   -0.075262   -0.085834    0.004931
H     2.308617   -1.598423    0.195226    0.287877    0.638029   -0.044905
H    -1.625843    1.043584   -0.132009   -0.900842   -1.168662    0.072397
H     2.579572    0.863274    0.000136   -0.515361    0.843706   -0.083477
