11
* (null), Energy   -1000.0000000
C     1.589770    0.404289    0.010476   -0.003369    0.009225    0.112210
C     1.411370   -0.965186    0.118323    0.001323   -0.005347   -0.063878
N     0.241399   -1.624530    0.140582   -0.002371    0.006686    0.083936
C    -0.900298   -0.884733    0.048827    0.000261   -0.000654   -0.005823
N    -0.762264    0.508959   -0.063346    0.004179   -0.012977   -0.152548
C     0.427306    1.242907   -0.091179    0.001406   -0.002789   -0.038228
O    -2.041444   -1.368814    0.058335    0.001211   -0.002500   -0.031461
O     0.393949    2.478247   -0.194845    0.000589   -0.001484   -0.022148
H     2.308617   -1.598423    0.195226    0.005495   -0.017336   -0.211404
H    -1.625843    1.043584   -0.132009   -0.054756    0.163709    1.968456
H     2.579572    0.863274    0.000136    0.000094   -0.000895   -0.003748
11
* Frequency(13)  686.9965
C     1.589387    0.405337    0.023228   -0.003369    0.009225    0.112210
C     1.411521   -0.965794    0.111063    0.001323   -0.005347   -0.063878
N     0.241129   -1.623770    0.150121   -0.002371    0.006686    0.083936
C    -0.900268   -0.884808    0.048165    0.000261   -0.000654   -0.005823
N    -0.761789    0.507484   -0.080682    0.004179   -0.012977   -0.152548
C     0.427466    1.242590   -0.095523    0.001406   -0.002789   -0.038228
O    -2.041306   -1.369098    0.054760    0.001211   -0.002500   -0.031461
O     0.394016    2.478078   -0.197362    0.000589   -0.001484   -0.022148
H     2.309242   -1.600393    0.171201    0.005495   -0.017336   -0.211404
H    -1.632066    1.062189    0.091695   -0.054756    0.163709    1.968456
H     2.579583    0.863172   -0.000290    0.000094   -0.000895   -0.003748
11
* Frequency(13)  686.9965
C     1.589046    0.406272    0.034598   -0.003369    0.009225    0.112210
C     1.411655   -0.966336    0.104591    0.001323   -0.005347   -0.063878
N     0.240889   -1.623092    0.158626   -0.002371    0.006686    0.083936
C    -0.900242   -0.884874    0.047575    0.000261   -0.000654   -0.005823
N    -0.761366    0.506169   -0.096140    0.004179   -0.012977   -0.152548
C     0.427608    1.242307   -0.099397    0.001406   -0.002789   -0.038228
O    -2.041183   -1.369351    0.051572    0.001211   -0.002500   -0.031461
O     0.394075    2.477928   -0.199606    0.000589   -0.001484   -0.022148
H     2.309799   -1.602149    0.149779    0.005495   -0.017336   -0.211404
H    -1.637614    1.078778    0.291158   -0.054756    0.163709    1.968456
H     2.579593    0.863082   -0.000670    0.000094   -0.000895   -0.003748
11
* Frequency(13)  686.9965
C     1.588783    0.406992    0.043354   -0.003369    0.009225    0.112210
C     1.411758   -0.966753    0.099606    0.001323   -0.005347   -0.063878
N     0.240704   -1.622571    0.165176   -0.002371    0.006686    0.083936
C    -0.900221   -0.884925    0.047121    0.000261   -0.000654   -0.005823
N    -0.761040    0.505156   -0.108044    0.004179   -0.012977   -0.152548
C     0.427718    1.242090   -0.102380    0.001406   -0.002789   -0.038228
O    -2.041089   -1.369546    0.049117    0.001211   -0.002500   -0.031461
O     0.394121    2.477812   -0.201334    0.000589   -0.001484   -0.022148
H     2.310227   -1.603502    0.133283    0.005495   -0.017336   -0.211404
H    -1.641887    1.091552    0.444764   -0.054756    0.163709    1.968456
H     2.579600    0.863012   -0.000962    0.000094   -0.000895   -0.003748
11
* Frequency(13)  686.9965
C     1.588627    0.407419    0.048548   -0.003369    0.009225    0.112210
C     1.411819   -0.967001    0.096650    0.001323   -0.005347   -0.063878
N     0.240594   -1.622261    0.169061   -0.002371    0.006686    0.083936
C    -0.900209   -0.884955    0.046851    0.000261   -0.000654   -0.005823
N    -0.760846    0.504556   -0.115104    0.004179   -0.012977   -0.152548
C     0.427783    1.241961   -0.104149    0.001406   -0.002789   -0.038228
O    -2.041033   -1.369662    0.047661    0.001211   -0.002500   -0.031461
O     0.394148    2.477743   -0.202359    0.000589   -0.001484   -0.022148
H     2.310482   -1.604305    0.123499    0.005495   -0.017336   -0.211404
H    -1.644421    1.099129    0.535868   -0.054756    0.163709    1.968456
H     2.579604    0.862970   -0.001135    0.000094   -0.000895   -0.003748
11
* Frequency(13)  686.9965
C     1.588595    0.407506    0.049615   -0.003369    0.009225    0.112210
C     1.411832   -0.967052    0.096042    0.001323   -0.005347   -0.063878
N     0.240572   -1.622197    0.169859   -0.002371    0.006686    0.083936
C    -0.900207   -0.884962    0.046796    0.000261   -0.000654   -0.005823
N    -0.760807    0.504432   -0.116556    0.004179   -0.012977   -0.152548
C     0.427796    1.241934   -0.104513    0.001406   -0.002789   -0.038228
O    -2.041021   -1.369686    0.047361    0.001211   -0.002500   -0.031461
O     0.394154    2.477729   -0.202570    0.000589   -0.001484   -0.022148
H     2.310534   -1.604470    0.121487    0.005495   -0.017336   -0.211404
H    -1.644942    1.100687    0.554597   -0.054756    0.163709    1.968456
H     2.579605    0.862962   -0.001171    0.000094   -0.000895   -0.003748
11
* Frequency(13)  686.9965
C     1.588690    0.407246    0.046441   -0.003369    0.009225    0.112210
C     1.411794   -0.966900    0.097849    0.001323   -0.005347   -0.063878
N     0.240639   -1.622387    0.167485   -0.002371    0.006686    0.083936
C    -0.900214   -0.884943    0.046960    0.000261   -0.000654   -0.005823
N    -0.760925    0.504799   -0.112241    0.004179   -0.012977   -0.152548
C     0.427756    1.242013   -0.103432    0.001406   -0.002789   -0.038228
O    -2.041056   -1.369615    0.048251    0.001211   -0.002500   -0.031461
O     0.394137    2.477771   -0.201944    0.000589   -0.001484   -0.022148
H     2.310379   -1.603979    0.127466    0.005495   -0.017336   -0.211404
H    -1.643394    1.096056    0.498921   -0.054756    0.163709    1.968456
H     2.579602    0.862987   -0.001065    0.000094   -0.000895   -0.003748
11
* Frequency(13)  686.9965
C     1.588903    0.406664    0.039370   -0.003369    0.009225    0.112210
C     1.411711   -0.966563    0.101874    0.001323   -0.005347   -0.063878
N     0.240788   -1.622808    0.162196   -0.002371    0.006686    0.083936
C    -0.900231   -0.884902    0.047327    0.000261   -0.000654   -0.005823
N    -0.761188    0.505617   -0.102628    0.004179   -0.012977   -0.152548
C     0.427668    1.242189   -0.101023    0.001406   -0.002789   -0.038228
O    -2.041132   -1.369458    0.050234    0.001211   -0.002500   -0.031461
O     0.394100    2.477865   -0.200548    0.000589   -0.001484   -0.022148
H     2.310032   -1.602887    0.140789    0.005495   -0.017336   -0.211404
H    -1.639943    1.085740    0.374874   -0.054756    0.163709    1.968456
H     2.579597    0.863044   -0.000829    0.000094   -0.000895   -0.003748
11
* Frequency(13)  686.9965
C     1.589209    0.405825    0.029168   -0.003369    0.009225    0.112210
C     1.411591   -0.966077    0.107682    0.001323   -0.005347   -0.063878
N     0.241004   -1.623416    0.154564   -0.002371    0.006686    0.083936
C    -0.900254   -0.884842    0.047857    0.000261   -0.000654   -0.005823
N    -0.761568    0.506797   -0.088758    0.004179   -0.012977   -0.152548
C     0.427540    1.242442   -0.097547    0.001406   -0.002789   -0.038228
O    -2.041242   -1.369230    0.053094    0.001211   -0.002500   -0.031461
O     0.394047    2.477999   -0.198534    0.000589   -0.001484   -0.022148
H     2.309533   -1.601310    0.160010    0.005495   -0.017336   -0.211404
H    -1.634964    1.070855    0.195899   -0.054756    0.163709    1.968456
H     2.579588    0.863125   -0.000488    0.000094   -0.000895   -0.003748
11
* Frequency(13)  686.9965
C     1.589576    0.404820    0.016940   -0.003369    0.009225    0.112210
C     1.411447   -0.965494    0.114643    0.001323   -0.005347   -0.063878
N     0.241262   -1.624144    0.145418   -0.002371    0.006686    0.083936
C    -0.900283   -0.884771    0.048491    0.000261   -0.000654   -0.005823
N    -0.762024    0.508211   -0.072134    0.004179   -0.012977   -0.152548
C     0.427387    1.242746   -0.093381    0.001406   -0.002789   -0.038228
O    -2.041374   -1.368958    0.056523    0.001211   -0.002500   -0.031461
O     0.393982    2.478161   -0.196121    0.000589   -0.001484   -0.022148
H     2.308934   -1.599421    0.183047    0.005495   -0.017336   -0.211404
H    -1.628997    1.053015   -0.018610   -0.054756    0.163709    1.968456
H     2.579578    0.863223   -0.000080    0.000094   -0.000895   -0.003748
11
* Frequency(13)  686.9965
C     1.589964    0.403757    0.004012   -0.003369    0.009225    0.112210
C     1.411294   -0.964878    0.122003    0.001323   -0.005347   -0.063878
N     0.241536   -1.624915    0.135747   -0.002371    0.006686    0.083936
C    -0.900313   -0.884696    0.049162    0.000261   -0.000654   -0.005823
N    -0.762505    0.509706   -0.054558    0.004179   -0.012977   -0.152548
C     0.427225    1.243068   -0.088976    0.001406   -0.002789   -0.038228
O    -2.041513   -1.368670    0.060147    0.001211   -0.002500   -0.031461
O     0.393915    2.478332   -0.193569    0.000589   -0.001484   -0.022148
H     2.308301   -1.597424    0.207404    0.005495   -0.017336   -0.211404
H    -1.622689    1.034153   -0.245408   -0.054756    0.163709    1.968456
H     2.579567    0.863326    0.000352    0.000094   -0.000895   -0.003748
11
* Frequency(13)  686.9965
C     1.590331    0.402752   -0.008216   -0.003369    0.009225    0.112210
C     1.411150   -0.964296    0.128964    0.001323   -0.005347   -0.063878
N     0.241794   -1.625643    0.126600   -0.002371    0.006686    0.083936
C    -0.900341   -0.884625    0.049797    0.000261   -0.000654   -0.005823
N    -0.762961    0.511120   -0.037934    0.004179   -0.012977   -0.152548
C     0.427071    1.243372   -0.084811    0.001406   -0.002789   -0.038228
O    -2.041645   -1.368397    0.063576    0.001211   -0.002500   -0.031461
O     0.393850    2.478494   -0.191155    0.000589   -0.001484   -0.022148
H     2.307702   -1.595535    0.230442    0.005495   -0.017336   -0.211404
H    -1.616722    1.016314   -0.459918   -0.054756    0.163709    1.968456
H     2.579557    0.863423    0.000761    0.000094   -0.000895   -0.003748
11
* Frequency(13)  686.9965
C     1.590638    0.401913   -0.018419   -0.003369    0.009225    0.112210
C     1.411030   -0.963809    0.134772    0.001323   -0.005347   -0.063878
N     0.242010   -1.626251    0.118968   -0.002371    0.006686    0.083936
C    -0.900365   -0.884565    0.050326    0.000261   -0.000654   -0.005823
N    -0.763341    0.512300   -0.024065    0.004179   -0.012977   -0.152548
C     0.426944    1.243625   -0.081335    0.001406   -0.002789   -0.038228
O    -2.041755   -1.368170    0.066436    0.001211   -0.002500   -0.031461
O     0.393797    2.478629   -0.189142    0.000589   -0.001484   -0.022148
H     2.307202   -1.593958    0.249663    0.005495   -0.017336   -0.211404
H    -1.611743    1.001429   -0.638893   -0.054756    0.163709    1.968456
H     2.579548    0.863505    0.001102    0.000094   -0.000895   -0.003748
11
* Frequency(13)  686.9965
C     1.590850    0.401332   -0.025490   -0.003369    0.009225    0.112210
C     1.410946   -0.963473    0.138797    0.001323   -0.005347   -0.063878
N     0.242159   -1.626673    0.113679   -0.002371    0.006686    0.083936
C    -0.900382   -0.884524    0.050693    0.000261   -0.000654   -0.005823
N    -0.763604    0.513118   -0.014451    0.004179   -0.012977   -0.152548
C     0.426855    1.243801   -0.078926    0.001406   -0.002789   -0.038228
O    -2.041832   -1.368013    0.068419    0.001211   -0.002500   -0.031461
O     0.393760    2.478723   -0.187746    0.000589   -0.001484   -0.022148
H     2.306856   -1.592866    0.262985    0.005495   -0.017336   -0.211404
H    -1.608292    0.991112   -0.762940   -0.054756    0.163709    1.968456
H     2.579542    0.863561    0.001338    0.000094   -0.000895   -0.003748
11
* Frequency(13)  686.9965
C     1.590945    0.401071   -0.028664   -0.003369    0.009225    0.112210
C     1.410909   -0.963321    0.140604    0.001323   -0.005347   -0.063878
N     0.242226   -1.626862    0.111305   -0.002371    0.006686    0.083936
C    -0.900389   -0.884505    0.050858    0.000261   -0.000654   -0.005823
N    -0.763722    0.513485   -0.010137    0.004179   -0.012977   -0.152548
C     0.426815    1.243880   -0.077844    0.001406   -0.002789   -0.038228
O    -2.041866   -1.367942    0.069309    0.001211   -0.002500   -0.031461
O     0.393743    2.478765   -0.187119    0.000589   -0.001484   -0.022148
H     2.306701   -1.592376    0.268964    0.005495   -0.017336   -0.211404
H    -1.606744    0.986482   -0.818616   -0.054756    0.163709    1.968456
H     2.579540    0.863586    0.001444    0.000094   -0.000895   -0.003748
11
* Frequency(13)  686.9965
C     1.590913    0.401159   -0.027596   -0.003369    0.009225    0.112210
C     1.410922   -0.963372    0.139996    0.001323   -0.005347   -0.063878
N     0.242203   -1.626798    0.112104   -0.002371    0.006686    0.083936
C    -0.900386   -0.884512    0.050803    0.000261   -0.000654   -0.005823
N    -0.763682    0.513362   -0.011588    0.004179   -0.012977   -0.152548
C     0.426829    1.243853   -0.078208    0.001406   -0.002789   -0.038228
O    -2.041854   -1.367966    0.069009    0.001211   -0.002500   -0.031461
O     0.393749    2.478750   -0.187330    0.000589   -0.001484   -0.022148
H     2.306753   -1.592541    0.266953    0.005495   -0.017336   -0.211404
H    -1.607265    0.988040   -0.799887   -0.054756    0.163709    1.968456
H     2.579541    0.863578    0.001408    0.000094   -0.000895   -0.003748
11
* Frequency(13)  686.9965
C     1.590757    0.401586   -0.022403   -0.003369    0.009225    0.112210
C     1.410983   -0.963620    0.137040    0.001323   -0.005347   -0.063878
N     0.242094   -1.626489    0.115988   -0.002371    0.006686    0.083936
C    -0.900374   -0.884542    0.050533    0.000261   -0.000654   -0.005823
N    -0.763489    0.512761   -0.018648    0.004179   -0.012977   -0.152548
C     0.426894    1.243724   -0.079977    0.001406   -0.002789   -0.038228
O    -2.041798   -1.368081    0.067553    0.001211   -0.002500   -0.031461
O     0.393776    2.478682   -0.188355    0.000589   -0.001484   -0.022148
H     2.307007   -1.593343    0.257169    0.005495   -0.017336   -0.211404
H    -1.609799    0.995616   -0.708783   -0.054756    0.163709    1.968456
H     2.579545    0.863537    0.001235    0.000094   -0.000895   -0.003748
11
* Frequency(13)  686.9965
C     1.590494    0.402306   -0.013646   -0.003369    0.009225    0.112210
C     1.411086   -0.964037    0.132055    0.001323   -0.005347   -0.063878
N     0.241909   -1.625967    0.122538   -0.002371    0.006686    0.083936
C    -0.900354   -0.884593    0.050079    0.000261   -0.000654   -0.005823
N    -0.763163    0.511748   -0.030552    0.004179   -0.012977   -0.152548
C     0.427003    1.243507   -0.082961    0.001406   -0.002789   -0.038228
O    -2.041704   -1.368276    0.065098    0.001211   -0.002500   -0.031461
O     0.393822    2.478566   -0.190084    0.000589   -0.001484   -0.022148
H     2.307436   -1.594696    0.240672    0.005495   -0.017336   -0.211404
H    -1.614072    1.008391   -0.555177   -0.054756    0.163709    1.968456
H     2.579552    0.863467    0.000942    0.000094   -0.000895   -0.003748
11
* Frequency(13)  686.9965
C     1.590153    0.403240   -0.002276   -0.003369    0.009225    0.112210
C     1.411220   -0.964579    0.125582    0.001323   -0.005347   -0.063878
N     0.241668   -1.625290    0.131043   -0.002371    0.006686    0.083936
C    -0.900328   -0.884659    0.049489    0.000261   -0.000654   -0.005823
N    -0.762739    0.510434   -0.046010    0.004179   -0.012977   -0.152548
C     0.427146    1.243224   -0.086834    0.001406   -0.002789   -0.038228
O    -2.041581   -1.368530    0.061910    0.001211   -0.002500   -0.031461
O     0.393882    2.478415   -0.192328    0.000589   -0.001484   -0.022148
H     2.307993   -1.596452    0.219251    0.005495   -0.017336   -0.211404
H    -1.619620    1.024980   -0.355714   -0.054756    0.163709    1.968456
H     2.579562    0.863376    0.000562    0.000094   -0.000895   -0.003748
11
* Frequency(13)  686.9965
C     1.589770    0.404289    0.010476   -0.003369    0.009225    0.112210
C     1.411370   -0.965186    0.118323    0.001323   -0.005347   -0.063878
N     0.241399   -1.624530    0.140582   -0.002371    0.006686    0.083936
C    -0.900298   -0.884733    0.048827    0.000261   -0.000654   -0.005823
N    -0.762264    0.508959   -0.063346    0.004179   -0.012977   -0.152548
C     0.427306    1.242907   -0.091179    0.001406   -0.002789   -0.038228
O    -2.041444   -1.368814    0.058335    0.001211   -0.002500   -0.031461
O     0.393949    2.478247   -0.194845    0.000589   -0.001484   -0.022148
H     2.308617   -1.598423    0.195226    0.005495   -0.017336   -0.211404
H    -1.625843    1.043584   -0.132009   -0.054756    0.163709    1.968456
H     2.579572    0.863274    0.000136    0.000094   -0.000895   -0.003748
