11
Coordinates from ORCA-job Uracil_m1 E -413.838870505375
  C           1.35713881926140      0.57286198807367     -0.01942197132961
  C           1.17873905977960     -0.79661312092122      0.08842505759878
  N           0.00876762178642     -1.45595639254903      0.11068445145534
  C          -1.13292927346236     -0.71616020212382      0.01892902722378
  N          -0.99489565631329      0.67753204526250     -0.09324392301076
  C           0.19467442349643      1.41148030734142     -0.12107649364743
  O          -2.27407493990303     -1.20024052577683      0.02843719289168
  O           0.16131721949139      2.64682002938902     -0.22474257058584
  H           2.07598598555436     -1.42984930400942      0.16532801307795
  H          -1.85847436875022      1.21215771328918     -0.16190728596986
  H           2.34694110905930      1.03184746202452     -0.02976149770403
