11
* (null), Energy   -1000.0000000
C     1.589770    0.404289    0.010476   -0.001087    0.000986   -0.000108
C     1.411370   -0.965186    0.118323   -0.000350    0.000338   -0.000034
N     0.241399   -1.624530    0.140582   -0.001438    0.000660   -0.000090
C    -0.900298   -0.884733    0.048827    0.001362    0.002005   -0.000129
N    -0.762264    0.508959   -0.063346    0.124858   -0.076716    0.009857
C     0.427306    1.242907   -0.091179   -0.001326   -0.002033    0.000125
O    -2.041444   -1.368814    0.058335   -0.000052    0.000053   -0.000009
O     0.393949    2.478247   -0.194845   -0.000049    0.000060   -0.000005
H     2.308617   -1.598423    0.195226    0.001677   -0.001124    0.000140
H    -1.625843    1.043584   -0.132009   -1.695345    1.042239   -0.133934
H     2.579572    0.863274    0.000136   -0.003051   -0.001507    0.000041
11
* Frequency(32) 3572.6778
C     1.589647    0.404401    0.010464   -0.001087    0.000986   -0.000108
C     1.411331   -0.965148    0.118319   -0.000350    0.000338   -0.000034
N     0.241236   -1.624455    0.140572   -0.001438    0.000660   -0.000090
C    -0.900143   -0.884506    0.048812    0.001362    0.002005   -0.000129
N    -0.748075    0.500240   -0.062226    0.124858   -0.076716    0.009857
C     0.427155    1.242676   -0.091164   -0.001326   -0.002033    0.000125
O    -2.041450   -1.368808    0.058334   -0.000052    0.000053   -0.000009
O     0.393943    2.478254   -0.194845   -0.000049    0.000060   -0.000005
H     2.308808   -1.598550    0.195242    0.001677   -0.001124    0.000140
H    -1.818510    1.162030   -0.147230   -1.695345    1.042239   -0.133934
H     2.579226    0.863103    0.000141   -0.003051   -0.001507    0.000041
11
* Frequency(32) 3572.6778
C     1.589537    0.404501    0.010453   -0.001087    0.000986   -0.000108
C     1.411295   -0.965114    0.118315   -0.000350    0.000338   -0.000034
N     0.241090   -1.624388    0.140563   -0.001438    0.000660   -0.000090
C    -0.900005   -0.884302    0.048799    0.001362    0.002005   -0.000129
N    -0.735423    0.492467   -0.061227    0.124858   -0.076716    0.009857
C     0.427021    1.242470   -0.091152   -0.001326   -0.002033    0.000125
O    -2.041455   -1.368802    0.058333   -0.000052    0.000053   -0.000009
O     0.393938    2.478260   -0.194846   -0.000049    0.000060   -0.000005
H     2.308978   -1.598664    0.195256    0.001677   -0.001124    0.000140
H    -1.990299    1.267639   -0.160802   -1.695345    1.042239   -0.133934
H     2.578916    0.862950    0.000145   -0.003051   -0.001507    0.000041
11
* Frequency(32) 3572.6778
C     1.589452    0.404578    0.010444   -0.001087    0.000986   -0.000108
C     1.411268   -0.965087    0.118313   -0.000350    0.000338   -0.000034
N     0.240978   -1.624336    0.140556   -0.001438    0.000660   -0.000090
C    -0.899899   -0.884146    0.048789    0.001362    0.002005   -0.000129
N    -0.725680    0.486480   -0.060458    0.124858   -0.076716    0.009857
C     0.426917    1.242311   -0.091142   -0.001326   -0.002033    0.000125
O    -2.041459   -1.368798    0.058332   -0.000052    0.000053   -0.000009
O     0.393934    2.478264   -0.194846   -0.000049    0.000060   -0.000005
H     2.309109   -1.598752    0.195267    0.001677   -0.001124    0.000140
H    -2.122593    1.348969   -0.171253   -1.695345    1.042239   -0.133934
H     2.578678    0.862833    0.000148   -0.003051   -0.001507    0.000041
11
* Frequency(32) 3572.6778
C     1.589401    0.404623    0.010439   -0.001087    0.000986   -0.000108
C     1.411252   -0.965072    0.118311   -0.000350    0.000338   -0.000034
N     0.240911   -1.624306    0.140552   -0.001438    0.000660   -0.000090
C    -0.899836   -0.884053    0.048783    0.001362    0.002005   -0.000129
N    -0.719901    0.482930   -0.060002    0.124858   -0.076716    0.009857
C     0.426856    1.242217   -0.091136   -0.001326   -0.002033    0.000125
O    -2.041461   -1.368796    0.058332   -0.000052    0.000053   -0.000009
O     0.393932    2.478267   -0.194847   -0.000049    0.000060   -0.000005
H     2.309186   -1.598804    0.195273    0.001677   -0.001124    0.000140
H    -2.201057    1.397206   -0.177452   -1.695345    1.042239   -0.133934
H     2.578537    0.862763    0.000150   -0.003051   -0.001507    0.000041
11
* Frequency(32) 3572.6778
C     1.589391    0.404633    0.010438   -0.001087    0.000986   -0.000108
C     1.411248   -0.965068    0.118311   -0.000350    0.000338   -0.000034
N     0.240897   -1.624299    0.140551   -0.001438    0.000660   -0.000090
C    -0.899823   -0.884034    0.048782    0.001362    0.002005   -0.000129
N    -0.718713    0.482200   -0.059908    0.124858   -0.076716    0.009857
C     0.426843    1.242198   -0.091135   -0.001326   -0.002033    0.000125
O    -2.041462   -1.368795    0.058332   -0.000052    0.000053   -0.000009
O     0.393931    2.478268   -0.194847   -0.000049    0.000060   -0.000005
H     2.309202   -1.598815    0.195275    0.001677   -0.001124    0.000140
H    -2.217187    1.407122   -0.178726   -1.695345    1.042239   -0.133934
H     2.578508    0.862749    0.000151   -0.003051   -0.001507    0.000041
11
* Frequency(32) 3572.6778
C     1.589422    0.404605    0.010441   -0.001087    0.000986   -0.000108
C     1.411258   -0.965078    0.118312   -0.000350    0.000338   -0.000034
N     0.240938   -1.624318    0.140554   -0.001438    0.000660   -0.000090
C    -0.899862   -0.884091    0.048786    0.001362    0.002005   -0.000129
N    -0.722245    0.484370   -0.060187    0.124858   -0.076716    0.009857
C     0.426881    1.242255   -0.091139   -0.001326   -0.002033    0.000125
O    -2.041460   -1.368797    0.058332   -0.000052    0.000053   -0.000009
O     0.393933    2.478266   -0.194846   -0.000049    0.000060   -0.000005
H     2.309155   -1.598783    0.195271    0.001677   -0.001124    0.000140
H    -2.169236    1.377644   -0.174938   -1.695345    1.042239   -0.133934
H     2.578594    0.862791    0.000149   -0.003051   -0.001507    0.000041
11
* Frequency(32) 3572.6778
C     1.589490    0.404543    0.010448   -0.001087    0.000986   -0.000108
C     1.411280   -0.965099    0.118314   -0.000350    0.000338   -0.000034
N     0.241029   -1.624360    0.140559   -0.001438    0.000660   -0.000090
C    -0.899947   -0.884217    0.048794    0.001362    0.002005   -0.000129
N    -0.730113    0.489204   -0.060808    0.124858   -0.076716    0.009857
C     0.426964    1.242383   -0.091146   -0.001326   -0.002033    0.000125
O    -2.041457   -1.368800    0.058333   -0.000052    0.000053   -0.000009
O     0.393936    2.478262   -0.194846   -0.000049    0.000060   -0.000005
H     2.309049   -1.598712    0.195262    0.001677   -0.001124    0.000140
H    -2.062400    1.311965   -0.166498   -1.695345    1.042239   -0.133934
H     2.578787    0.862886    0.000147   -0.003051   -0.001507    0.000041
11
* Frequency(32) 3572.6778
C     1.589589    0.404453    0.010458   -0.001087    0.000986   -0.000108
C     1.411312   -0.965130    0.118317   -0.000350    0.000338   -0.000034
N     0.241159   -1.624420    0.140567   -0.001438    0.000660   -0.000090
C    -0.900071   -0.884399    0.048805    0.001362    0.002005   -0.000129
N    -0.741465    0.496179   -0.061704    0.124858   -0.076716    0.009857
C     0.427085    1.242568   -0.091158   -0.001326   -0.002033    0.000125
O    -2.041452   -1.368805    0.058334   -0.000052    0.000053   -0.000009
O     0.393940    2.478257   -0.194846   -0.000049    0.000060   -0.000005
H     2.308897   -1.598610    0.195249    0.001677   -0.001124    0.000140
H    -1.908256    1.217202   -0.154320   -1.695345    1.042239   -0.133934
H     2.579064    0.863023    0.000143   -0.003051   -0.001507    0.000041
11
* Frequency(32) 3572.6778
C     1.589708    0.404346    0.010470   -0.001087    0.000986   -0.000108
C     1.411350   -0.965167    0.118321   -0.000350    0.000338   -0.000034
N     0.241316   -1.624492    0.140577   -0.001438    0.000660   -0.000090
C    -0.900220   -0.884618    0.048819    0.001362    0.002005   -0.000129
N    -0.755071    0.504539   -0.062778    0.124858   -0.076716    0.009857
C     0.427229    1.242790   -0.091171   -0.001326   -0.002033    0.000125
O    -2.041447   -1.368811    0.058334   -0.000052    0.000053   -0.000009
O     0.393946    2.478250   -0.194845   -0.000049    0.000060   -0.000005
H     2.308714   -1.598487    0.195234    0.001677   -0.001124    0.000140
H    -1.723509    1.103626   -0.139725   -1.695345    1.042239   -0.133934
H     2.579397    0.863187    0.000139   -0.003051   -0.001507    0.000041
11
* Frequency(32) 3572.6778
C     1.589833    0.404232    0.010482   -0.001087    0.000986   -0.000108
C     1.411391   -0.965206    0.118325   -0.000350    0.000338   -0.000034
N     0.241482   -1.624568    0.140587   -0.001438    0.000660   -0.000090
C    -0.900376   -0.884849    0.048834    0.001362    0.002005   -0.000129
N    -0.769457    0.513378   -0.063914    0.124858   -0.076716    0.009857
C     0.427382    1.243024   -0.091186   -0.001326   -0.002033    0.000125
O    -2.041441   -1.368817    0.058336   -0.000052    0.000053   -0.000009
O     0.393951    2.478243   -0.194844   -0.000049    0.000060   -0.000005
H     2.308521   -1.598358    0.195218    0.001677   -0.001124    0.000140
H    -1.528177    0.983543   -0.124294   -1.695345    1.042239   -0.133934
H     2.579748    0.863361    0.000134   -0.003051   -0.001507    0.000041
11
* Frequency(32) 3572.6778
C     1.589951    0.404124    0.010494   -0.001087    0.000986   -0.000108
C     1.411429   -0.965243    0.118329   -0.000350    0.000338   -0.000034
N     0.241639   -1.624640    0.140597   -0.001438    0.000660   -0.000090
C    -0.900525   -0.885068    0.048848    0.001362    0.002005   -0.000129
N    -0.783063    0.521738   -0.064988    0.124858   -0.076716    0.009857
C     0.427527    1.243246   -0.091200   -0.001326   -0.002033    0.000125
O    -2.041435   -1.368823    0.058336   -0.000052    0.000053   -0.000009
O     0.393957    2.478237   -0.194844   -0.000049    0.000060   -0.000005
H     2.308338   -1.598235    0.195202    0.001677   -0.001124    0.000140
H    -1.343430    0.869967   -0.109699   -1.695345    1.042239   -0.133934
H     2.580081    0.863525    0.000130   -0.003051   -0.001507    0.000041
11
* Frequency(32) 3572.6778
C     1.590050    0.404035    0.010504   -0.001087    0.000986   -0.000108
C     1.411461   -0.965274    0.118332   -0.000350    0.000338   -0.000034
N     0.241769   -1.624700    0.140605   -0.001438    0.000660   -0.000090
C    -0.900649   -0.885250    0.048860    0.001362    0.002005   -0.000129
N    -0.794416    0.528713   -0.065884    0.124858   -0.076716    0.009857
C     0.427647    1.243431   -0.091211   -0.001326   -0.002033    0.000125
O    -2.041430   -1.368828    0.058337   -0.000052    0.000053   -0.000009
O     0.393961    2.478231   -0.194843   -0.000049    0.000060   -0.000005
H     2.308186   -1.598133    0.195190    0.001677   -0.001124    0.000140
H    -1.189286    0.775204   -0.097521   -1.695345    1.042239   -0.133934
H     2.580358    0.863662    0.000126   -0.003051   -0.001507    0.000041
11
* Frequency(32) 3572.6778
C     1.590118    0.403973    0.010511   -0.001087    0.000986   -0.000108
C     1.411483   -0.965295    0.118334   -0.000350    0.000338   -0.000034
N     0.241860   -1.624741    0.140611   -0.001438    0.000660   -0.000090
C    -0.900734   -0.885376    0.048868    0.001362    0.002005   -0.000129
N    -0.802284    0.533548   -0.066505    0.124858   -0.076716    0.009857
C     0.427731    1.243559   -0.091219   -0.001326   -0.002033    0.000125
O    -2.041427   -1.368831    0.058338   -0.000052    0.000053   -0.000009
O     0.393964    2.478228   -0.194843   -0.000049    0.000060   -0.000005
H     2.308080   -1.598062    0.195181    0.001677   -0.001124    0.000140
H    -1.082450    0.709525   -0.089081   -1.695345    1.042239   -0.133934
H     2.580550    0.863757    0.000123   -0.003051   -0.001507    0.000041
11
* Frequency(32) 3572.6778
C     1.590149    0.403945    0.010514   -0.001087    0.000986   -0.000108
C     1.411493   -0.965304    0.118335   -0.000350    0.000338   -0.000034
N     0.241901   -1.624760    0.140614   -0.001438    0.000660   -0.000090
C    -0.900773   -0.885433    0.048872    0.001362    0.002005   -0.000129
N    -0.805816    0.535718   -0.066784    0.124858   -0.076716    0.009857
C     0.427768    1.243616   -0.091222   -0.001326   -0.002033    0.000125
O    -2.041425   -1.368832    0.058338   -0.000052    0.000053   -0.000009
O     0.393966    2.478226   -0.194843   -0.000049    0.000060   -0.000005
H     2.308032   -1.598031    0.195177    0.001677   -0.001124    0.000140
H    -1.034499    0.680047   -0.085293   -1.695345    1.042239   -0.133934
H     2.580637    0.863800    0.000122   -0.003051   -0.001507    0.000041
11
* Frequency(32) 3572.6778
C     1.590139    0.403954    0.010513   -0.001087    0.000986   -0.000108
C     1.411489   -0.965301    0.118335   -0.000350    0.000338   -0.000034
N     0.241887   -1.624754    0.140613   -0.001438    0.000660   -0.000090
C    -0.900760   -0.885414    0.048871    0.001362    0.002005   -0.000129
N    -0.804628    0.534988   -0.066690    0.124858   -0.076716    0.009857
C     0.427756    1.243597   -0.091221   -0.001326   -0.002033    0.000125
O    -2.041426   -1.368832    0.058338   -0.000052    0.000053   -0.000009
O     0.393965    2.478226   -0.194843   -0.000049    0.000060   -0.000005
H     2.308048   -1.598041    0.195178    0.001677   -0.001124    0.000140
H    -1.050629    0.689963   -0.086567   -1.695345    1.042239   -0.133934
H     2.580608    0.863785    0.000123   -0.003051   -0.001507    0.000041
11
* Frequency(32) 3572.6778
C     1.590089    0.404000    0.010508   -0.001087    0.000986   -0.000108
C     1.411473   -0.965286    0.118333   -0.000350    0.000338   -0.000034
N     0.241820   -1.624723    0.140609   -0.001438    0.000660   -0.000090
C    -0.900697   -0.885321    0.048865    0.001362    0.002005   -0.000129
N    -0.798849    0.531437   -0.066234    0.124858   -0.076716    0.009857
C     0.427694    1.243503   -0.091215   -0.001326   -0.002033    0.000125
O    -2.041428   -1.368829    0.058338   -0.000052    0.000053   -0.000009
O     0.393963    2.478229   -0.194843   -0.000049    0.000060   -0.000005
H     2.308126   -1.598093    0.195185    0.001677   -0.001124    0.000140
H    -1.129093    0.738200   -0.092766   -1.695345    1.042239   -0.133934
H     2.580467    0.863716    0.000124   -0.003051   -0.001507    0.000041
11
* Frequency(32) 3572.6778
C     1.590004    0.404077    0.010499   -0.001087    0.000986   -0.000108
C     1.411446   -0.965259    0.118330   -0.000350    0.000338   -0.000034
N     0.241708   -1.624672    0.140602   -0.001438    0.000660   -0.000090
C    -0.900591   -0.885165    0.048855    0.001362    0.002005   -0.000129
N    -0.789106    0.525451   -0.065465    0.124858   -0.076716    0.009857
C     0.427591    1.243344   -0.091206   -0.001326   -0.002033    0.000125
O    -2.041432   -1.368825    0.058337   -0.000052    0.000053   -0.000009
O     0.393959    2.478234   -0.194844   -0.000049    0.000060   -0.000005
H     2.308257   -1.598181    0.195196    0.001677   -0.001124    0.000140
H    -1.261387    0.819530   -0.103217   -1.695345    1.042239   -0.133934
H     2.580228    0.863598    0.000128   -0.003051   -0.001507    0.000041
11
* Frequency(32) 3572.6778
C     1.589894    0.404177    0.010488   -0.001087    0.000986   -0.000108
C     1.411410   -0.965225    0.118327   -0.000350    0.000338   -0.000034
N     0.241562   -1.624605    0.140592   -0.001438    0.000660   -0.000090
C    -0.900453   -0.884961    0.048841    0.001362    0.002005   -0.000129
N    -0.776454    0.517677   -0.064466    0.124858   -0.076716    0.009857
C     0.427456    1.243138   -0.091193   -0.001326   -0.002033    0.000125
O    -2.041438   -1.368820    0.058336   -0.000052    0.000053   -0.000009
O     0.393954    2.478240   -0.194844   -0.000049    0.000060   -0.000005
H     2.308427   -1.598295    0.195210    0.001677   -0.001124    0.000140
H    -1.433176    0.925139   -0.116789   -1.695345    1.042239   -0.133934
H     2.579919    0.863445    0.000132   -0.003051   -0.001507    0.000041
11
* Frequency(32) 3572.6778
C     1.589770    0.404289    0.010476   -0.001087    0.000986   -0.000108
C     1.411370   -0.965186    0.118323   -0.000350    0.000338   -0.000034
N     0.241399   -1.624530    0.140582   -0.001438    0.000660   -0.000090
C    -0.900298   -0.884733    0.048827    0.001362    0.002005   -0.000129
N    -0.762264    0.508959   -0.063346    0.124858   -0.076716    0.009857
C     0.427306    1.242907   -0.091179   -0.001326   -0.002033    0.000125
O    -2.041444   -1.368814    0.058335   -0.000052    0.000053   -0.000009
O     0.393949    2.478247   -0.194845   -0.000049    0.000060   -0.000005
H     2.308617   -1.598423    0.195226    0.001677   -0.001124    0.000140
H    -1.625843    1.043584   -0.132009   -1.695345    1.042239   -0.133934
H     2.579572    0.863274    0.000136   -0.003051   -0.001507    0.000041
