11
* (null), Energy   -1000.0000000
C     1.356566    0.572472   -0.019574    0.003960   -0.008647   -0.113072
C     1.179217   -0.796685    0.088575   -0.002033    0.006169    0.067013
N     0.008210   -1.454494    0.110838    0.002431   -0.007887   -0.085886
C    -1.131376   -0.714764    0.018532   -0.000451   -0.000769    0.002665
N    -0.995238    0.677642   -0.092617   -0.004246    0.012669    0.156931
C     0.194158    1.409660   -0.120689   -0.000264    0.002909    0.030123
O    -2.273001   -1.200862    0.028059   -0.001910    0.002630    0.032441
O     0.161758    2.645985   -0.224814   -0.000722    0.002446    0.024569
H     2.075560   -1.430341    0.165515   -0.006259    0.019687    0.227457
H    -1.858608    1.212888   -0.161920    0.057569   -0.162735   -1.966153
H     2.345944    1.032379   -0.030255    0.001241    0.000060    0.004740
11
* Frequency(13)  676.2590
C     1.357016    0.571489   -0.032424    0.003960   -0.008647   -0.113072
C     1.178986   -0.795984    0.096191   -0.002033    0.006169    0.067013
N     0.008486   -1.455390    0.101077    0.002431   -0.007887   -0.085886
C    -1.131427   -0.714852    0.018834   -0.000451   -0.000769    0.002665
N    -0.995721    0.679082   -0.074782   -0.004246    0.012669    0.156931
C     0.194128    1.409990   -0.117266   -0.000264    0.002909    0.030123
O    -2.273218   -1.200564    0.031746   -0.001910    0.002630    0.032441
O     0.161676    2.646263   -0.222022   -0.000722    0.002446    0.024569
H     2.074848   -1.428103    0.191364   -0.006259    0.019687    0.227457
H    -1.852066    1.194394   -0.385363    0.057569   -0.162735   -1.966153
H     2.346085    1.032386   -0.029716    0.001241    0.000060    0.004740
11
* Frequency(13)  676.2590
C     1.357418    0.570613   -0.043881    0.003960   -0.008647   -0.113072
C     1.178780   -0.795359    0.102981   -0.002033    0.006169    0.067013
N     0.008733   -1.456190    0.092375    0.002431   -0.007887   -0.085886
C    -1.131473   -0.714929    0.019105   -0.000451   -0.000769    0.002665
N    -0.996151    0.680366   -0.058881   -0.004246    0.012669    0.156931
C     0.194101    1.410285   -0.114213   -0.000264    0.002909    0.030123
O    -2.273412   -1.200297    0.035033   -0.001910    0.002630    0.032441
O     0.161603    2.646511   -0.219532   -0.000722    0.002446    0.024569
H     2.074214   -1.426109    0.214412   -0.006259    0.019687    0.227457
H    -1.846232    1.177904   -0.584593    0.057569   -0.162735   -1.966153
H     2.346211    1.032392   -0.029236    0.001241    0.000060    0.004740
11
* Frequency(13)  676.2590
C     1.357727    0.569938   -0.052705    0.003960   -0.008647   -0.113072
C     1.178621   -0.794877    0.108211   -0.002033    0.006169    0.067013
N     0.008922   -1.456805    0.085673    0.002431   -0.007887   -0.085886
C    -1.131508   -0.714989    0.019312   -0.000451   -0.000769    0.002665
N    -0.996482    0.681355   -0.046635   -0.004246    0.012669    0.156931
C     0.194080    1.410512   -0.111863   -0.000264    0.002909    0.030123
O    -2.273561   -1.200092    0.037564   -0.001910    0.002630    0.032441
O     0.161547    2.646702   -0.217615   -0.000722    0.002446    0.024569
H     2.073725   -1.424572    0.232161   -0.006259    0.019687    0.227457
H    -1.841740    1.165205   -0.738019    0.057569   -0.162735   -1.966153
H     2.346308    1.032397   -0.028866    0.001241    0.000060    0.004740
11
* Frequency(13)  676.2590
C     1.357910    0.569538   -0.057938    0.003960   -0.008647   -0.113072
C     1.178527   -0.794592    0.111312   -0.002033    0.006169    0.067013
N     0.009035   -1.457170    0.081698    0.002431   -0.007887   -0.085886
C    -1.131529   -0.715025    0.019436   -0.000451   -0.000769    0.002665
N    -0.996679    0.681941   -0.039372   -0.004246    0.012669    0.156931
C     0.194068    1.410646   -0.110469   -0.000264    0.002909    0.030123
O    -2.273649   -1.199970    0.039066   -0.001910    0.002630    0.032441
O     0.161513    2.646815   -0.216478   -0.000722    0.002446    0.024569
H     2.073436   -1.423661    0.242688   -0.006259    0.019687    0.227457
H    -1.839075    1.157673   -0.829017    0.057569   -0.162735   -1.966153
H     2.346365    1.032400   -0.028646    0.001241    0.000060    0.004740
11
* Frequency(13)  676.2590
C     1.357948    0.569456   -0.059014    0.003960   -0.008647   -0.113072
C     1.178508   -0.794533    0.111950   -0.002033    0.006169    0.067013
N     0.009058   -1.457245    0.080880    0.002431   -0.007887   -0.085886
C    -1.131533   -0.715032    0.019461   -0.000451   -0.000769    0.002665
N    -0.996719    0.682061   -0.037879   -0.004246    0.012669    0.156931
C     0.194066    1.410674   -0.110182   -0.000264    0.002909    0.030123
O    -2.273667   -1.199945    0.039374   -0.001910    0.002630    0.032441
O     0.161506    2.646839   -0.216244   -0.000722    0.002446    0.024569
H     2.073376   -1.423474    0.244853   -0.006259    0.019687    0.227457
H    -1.838528    1.156125   -0.847723    0.057569   -0.162735   -1.966153
H     2.346377    1.032400   -0.028601    0.001241    0.000060    0.004740
11
* Frequency(13)  676.2590
C     1.357836    0.569700   -0.055816    0.003960   -0.008647   -0.113072
C     1.178566   -0.794707    0.110054   -0.002033    0.006169    0.067013
N     0.008989   -1.457022    0.083310    0.002431   -0.007887   -0.085886
C    -1.131520   -0.715011    0.019386   -0.000451   -0.000769    0.002665
N    -0.996599    0.681703   -0.042317   -0.004246    0.012669    0.156931
C     0.194073    1.410592   -0.111034   -0.000264    0.002909    0.030123
O    -2.273613   -1.200019    0.038457   -0.001910    0.002630    0.032441
O     0.161527    2.646769   -0.216939   -0.000722    0.002446    0.024569
H     2.073553   -1.424031    0.238419   -0.006259    0.019687    0.227457
H    -1.840156    1.160728   -0.792113    0.057569   -0.162735   -1.966153
H     2.346342    1.032398   -0.028735    0.001241    0.000060    0.004740
11
* Frequency(13)  676.2590
C     1.357586    0.570245   -0.048690    0.003960   -0.008647   -0.113072
C     1.178694   -0.795096    0.105831   -0.002033    0.006169    0.067013
N     0.008836   -1.456525    0.088722    0.002431   -0.007887   -0.085886
C    -1.131492   -0.714962    0.019218   -0.000451   -0.000769    0.002665
N    -0.996332    0.680905   -0.052207   -0.004246    0.012669    0.156931
C     0.194090    1.410409   -0.112932   -0.000264    0.002909    0.030123
O    -2.273493   -1.200185    0.036412   -0.001910    0.002630    0.032441
O     0.161572    2.646615   -0.218487   -0.000722    0.002446    0.024569
H     2.073948   -1.425271    0.224085   -0.006259    0.019687    0.227457
H    -1.843784    1.170983   -0.668211    0.057569   -0.162735   -1.966153
H     2.346264    1.032395   -0.029034    0.001241    0.000060    0.004740
11
* Frequency(13)  676.2590
C     1.357226    0.571031   -0.038409    0.003960   -0.008647   -0.113072
C     1.178878   -0.795657    0.099738   -0.002033    0.006169    0.067013
N     0.008615   -1.455808    0.096531    0.002431   -0.007887   -0.085886
C    -1.131451   -0.714892    0.018976   -0.000451   -0.000769    0.002665
N    -0.995946    0.679753   -0.066475   -0.004246    0.012669    0.156931
C     0.194114    1.410144   -0.115671   -0.000264    0.002909    0.030123
O    -2.273319   -1.200424    0.033463   -0.001910    0.002630    0.032441
O     0.161638    2.646393   -0.220721   -0.000722    0.002446    0.024569
H     2.074517   -1.427061    0.203405   -0.006259    0.019687    0.227457
H    -1.849018    1.185779   -0.489445    0.057569   -0.162735   -1.966153
H     2.346151    1.032389   -0.029465    0.001241    0.000060    0.004740
11
* Frequency(13)  676.2590
C     1.356795    0.571974   -0.026088    0.003960   -0.008647   -0.113072
C     1.179100   -0.796329    0.092436   -0.002033    0.006169    0.067013
N     0.008350   -1.454949    0.105890    0.002431   -0.007887   -0.085886
C    -1.131402   -0.714808    0.018685   -0.000451   -0.000769    0.002665
N    -0.995483    0.678372   -0.083576   -0.004246    0.012669    0.156931
C     0.194142    1.409827   -0.118954   -0.000264    0.002909    0.030123
O    -2.273111   -1.200711    0.029928   -0.001910    0.002630    0.032441
O     0.161717    2.646126   -0.223399   -0.000722    0.002446    0.024569
H     2.075199   -1.429207    0.178618   -0.006259    0.019687    0.227457
H    -1.855292    1.203513   -0.275187    0.057569   -0.162735   -1.966153
H     2.346016    1.032383   -0.029982    0.001241    0.000060    0.004740
11
* Frequency(13)  676.2590
C     1.356338    0.572970   -0.013060    0.003960   -0.008647   -0.113072
C     1.179334   -0.797040    0.084715   -0.002033    0.006169    0.067013
N     0.008070   -1.454040    0.115786    0.002431   -0.007887   -0.085886
C    -1.131350   -0.714720    0.018378   -0.000451   -0.000769    0.002665
N    -0.994994    0.676913   -0.101657   -0.004246    0.012669    0.156931
C     0.194173    1.409492   -0.122424   -0.000264    0.002909    0.030123
O    -2.272891   -1.201014    0.026190   -0.001910    0.002630    0.032441
O     0.161800    2.645845   -0.226229   -0.000722    0.002446    0.024569
H     2.075920   -1.431475    0.152411   -0.006259    0.019687    0.227457
H    -1.861925    1.222263   -0.048654    0.057569   -0.162735   -1.966153
H     2.345873    1.032376   -0.030528    0.001241    0.000060    0.004740
11
* Frequency(13)  676.2590
C     1.355907    0.573912   -0.000738    0.003960   -0.008647   -0.113072
C     1.179556   -0.797712    0.077412   -0.002033    0.006169    0.067013
N     0.007805   -1.453180    0.125145    0.002431   -0.007887   -0.085886
C    -1.131301   -0.714636    0.018088   -0.000451   -0.000769    0.002665
N    -0.994531    0.675532   -0.118759   -0.004246    0.012669    0.156931
C     0.194202    1.409175   -0.125707   -0.000264    0.002909    0.030123
O    -2.272683   -1.201301    0.022655   -0.001910    0.002630    0.032441
O     0.161878    2.645578   -0.228907   -0.000722    0.002446    0.024569
H     2.076602   -1.433620    0.127624   -0.006259    0.019687    0.227457
H    -1.868198    1.239996    0.165605    0.057569   -0.162735   -1.966153
H     2.345738    1.032369   -0.031044    0.001241    0.000060    0.004740
11
* Frequency(13)  676.2590
C     1.355547    0.574698    0.009543    0.003960   -0.008647   -0.113072
C     1.179741   -0.798273    0.071319   -0.002033    0.006169    0.067013
N     0.007584   -1.452463    0.132954    0.002431   -0.007887   -0.085886
C    -1.131260   -0.714566    0.017845   -0.000451   -0.000769    0.002665
N    -0.994145    0.674380   -0.133027   -0.004246    0.012669    0.156931
C     0.194225    1.408911   -0.128446   -0.000264    0.002909    0.030123
O    -2.272509   -1.201540    0.019705   -0.001910    0.002630    0.032441
O     0.161944    2.645356   -0.231141   -0.000722    0.002446    0.024569
H     2.077171   -1.435410    0.106944   -0.006259    0.019687    0.227457
H    -1.873432    1.254793    0.344371    0.057569   -0.162735   -1.966153
H     2.345625    1.032364   -0.031475    0.001241    0.000060    0.004740
11
* Frequency(13)  676.2590
C     1.355297    0.575243    0.016668    0.003960   -0.008647   -0.113072
C     1.179869   -0.798662    0.067096   -0.002033    0.006169    0.067013
N     0.007431   -1.451966    0.138366    0.002431   -0.007887   -0.085886
C    -1.131231   -0.714518    0.017678   -0.000451   -0.000769    0.002665
N    -0.993877    0.673582   -0.142917   -0.004246    0.012669    0.156931
C     0.194242    1.408727   -0.130344   -0.000264    0.002909    0.030123
O    -2.272389   -1.201705    0.017661   -0.001910    0.002630    0.032441
O     0.161990    2.645202   -0.232689   -0.000722    0.002446    0.024569
H     2.077566   -1.436651    0.092610   -0.006259    0.019687    0.227457
H    -1.877060    1.265048    0.468273    0.057569   -0.162735   -1.966153
H     2.345547    1.032360   -0.031774    0.001241    0.000060    0.004740
11
* Frequency(13)  676.2590
C     1.355185    0.575488    0.019866    0.003960   -0.008647   -0.113072
C     1.179926   -0.798836    0.065201   -0.002033    0.006169    0.067013
N     0.007362   -1.451743    0.140796    0.002431   -0.007887   -0.085886
C    -1.131218   -0.714496    0.017602   -0.000451   -0.000769    0.002665
N    -0.993757    0.673224   -0.147355   -0.004246    0.012669    0.156931
C     0.194250    1.408645   -0.131196   -0.000264    0.002909    0.030123
O    -2.272335   -1.201780    0.016743   -0.001910    0.002630    0.032441
O     0.162010    2.645132   -0.233384   -0.000722    0.002446    0.024569
H     2.077743   -1.437208    0.086177   -0.006259    0.019687    0.227457
H    -1.878689    1.269651    0.523883    0.057569   -0.162735   -1.966153
H     2.345512    1.032358   -0.031908    0.001241    0.000060    0.004740
11
* Frequency(13)  676.2590
C     1.355223    0.575405    0.018791    0.003960   -0.008647   -0.113072
C     1.179907   -0.798778    0.065839   -0.002033    0.006169    0.067013
N     0.007385   -1.451818    0.139978    0.002431   -0.007887   -0.085886
C    -1.131223   -0.714503    0.017628   -0.000451   -0.000769    0.002665
N    -0.993798    0.673344   -0.145862   -0.004246    0.012669    0.156931
C     0.194247    1.408673   -0.130909   -0.000264    0.002909    0.030123
O    -2.272353   -1.201755    0.017052   -0.001910    0.002630    0.032441
O     0.162003    2.645156   -0.233150   -0.000722    0.002446    0.024569
H     2.077683   -1.437020    0.088341   -0.006259    0.019687    0.227457
H    -1.878141    1.268102    0.505176    0.057569   -0.162735   -1.966153
H     2.345523    1.032359   -0.031863    0.001241    0.000060    0.004740
11
* Frequency(13)  676.2590
C     1.355406    0.575005    0.013557    0.003960   -0.008647   -0.113072
C     1.179813   -0.798492    0.068940   -0.002033    0.006169    0.067013
N     0.007498   -1.452183    0.136003    0.002431   -0.007887   -0.085886
C    -1.131244   -0.714539    0.017751   -0.000451   -0.000769    0.002665
N    -0.993994    0.673930   -0.138599   -0.004246    0.012669    0.156931
C     0.194235    1.408807   -0.129515   -0.000264    0.002909    0.030123
O    -2.272441   -1.201633    0.018553   -0.001910    0.002630    0.032441
O     0.161970    2.645269   -0.232013   -0.000722    0.002446    0.024569
H     2.077394   -1.436109    0.098868   -0.006259    0.019687    0.227457
H    -1.875476    1.260571    0.414179    0.057569   -0.162735   -1.966153
H     2.345581    1.032362   -0.031643    0.001241    0.000060    0.004740
11
* Frequency(13)  676.2590
C     1.355715    0.574331    0.004734    0.003960   -0.008647   -0.113072
C     1.179654   -0.798011    0.074169   -0.002033    0.006169    0.067013
N     0.007687   -1.452799    0.129301    0.002431   -0.007887   -0.085886
C    -1.131279   -0.714599    0.017959   -0.000451   -0.000769    0.002665
N    -0.994326    0.674919   -0.126353   -0.004246    0.012669    0.156931
C     0.194214    1.409034   -0.127164   -0.000264    0.002909    0.030123
O    -2.272590   -1.201428    0.021085   -0.001910    0.002630    0.032441
O     0.161913    2.645460   -0.230096   -0.000722    0.002446    0.024569
H     2.076905   -1.434573    0.116617   -0.006259    0.019687    0.227457
H    -1.870984    1.247872    0.260753    0.057569   -0.162735   -1.966153
H     2.345678    1.032366   -0.031274    0.001241    0.000060    0.004740
11
* Frequency(13)  676.2590
C     1.356116    0.573454   -0.006724    0.003960   -0.008647   -0.113072
C     1.179448   -0.797386    0.080960   -0.002033    0.006169    0.067013
N     0.007934   -1.453598    0.120599    0.002431   -0.007887   -0.085886
C    -1.131324   -0.714677    0.018229   -0.000451   -0.000769    0.002665
N    -0.994756    0.676203   -0.110451   -0.004246    0.012669    0.156931
C     0.194188    1.409329   -0.124112   -0.000264    0.002909    0.030123
O    -2.272784   -1.201161    0.024372   -0.001910    0.002630    0.032441
O     0.161840    2.645707   -0.227606   -0.000722    0.002446    0.024569
H     2.076271   -1.432578    0.139665   -0.006259    0.019687    0.227457
H    -1.865151    1.231382    0.061523    0.057569   -0.162735   -1.966153
H     2.345803    1.032372   -0.030793    0.001241    0.000060    0.004740
11
* Frequency(13)  676.2590
C     1.356566    0.572472   -0.019574    0.003960   -0.008647   -0.113072
C     1.179217   -0.796685    0.088575   -0.002033    0.006169    0.067013
N     0.008210   -1.454494    0.110838    0.002431   -0.007887   -0.085886
C    -1.131376   -0.714764    0.018532   -0.000451   -0.000769    0.002665
N    -0.995238    0.677642   -0.092617   -0.004246    0.012669    0.156931
C     0.194158    1.409660   -0.120689   -0.000264    0.002909    0.030123
O    -2.273001   -1.200862    0.028059   -0.001910    0.002630    0.032441
O     0.161758    2.645985   -0.224814   -0.000722    0.002446    0.024569
H     2.075560   -1.430341    0.165515   -0.006259    0.019687    0.227457
H    -1.858608    1.212888   -0.161920    0.057569   -0.162735   -1.966153
H     2.345944    1.032379   -0.030255    0.001241    0.000060    0.004740
