11
* (null), Energy   -1000.0000000
C     1.356566    0.572472   -0.019574   -0.001016    0.000896    0.010327
C     1.179217   -0.796685    0.088575   -0.005442    0.015061    0.179822
N     0.008210   -1.454494    0.110838    0.001167   -0.003484   -0.042985
C    -1.131376   -0.714764    0.018532    0.007090   -0.020577   -0.251992
N    -0.995238    0.677642   -0.092617    0.002063   -0.005670   -0.069317
C     0.194158    1.409660   -0.120689   -0.010189    0.030334    0.368596
O    -2.273001   -1.200862    0.028059   -0.001484    0.006632    0.078456
O     0.161758    2.645985   -0.224814    0.002418   -0.007717   -0.087032
H     2.075560   -1.430341    0.165515    0.002413   -0.007743   -0.099919
H    -1.858608    1.212888   -0.161920   -0.001408    0.006214    0.065686
H     2.345944    1.032379   -0.030255    0.053169   -0.160445   -1.924297
11
* Frequency(14)  735.6238
C     1.356451    0.572574   -0.018400   -0.001016    0.000896    0.010327
C     1.178599   -0.794973    0.109011   -0.005442    0.015061    0.179822
N     0.008343   -1.454890    0.105953    0.001167   -0.003484   -0.042985
C    -1.130570   -0.717103   -0.010106    0.007090   -0.020577   -0.251992
N    -0.995004    0.676998   -0.100494    0.002063   -0.005670   -0.069317
C     0.193000    1.413107   -0.078800   -0.010189    0.030334    0.368596
O    -2.273170   -1.200109    0.036975   -0.001484    0.006632    0.078456
O     0.162033    2.645108   -0.234705    0.002418   -0.007717   -0.087032
H     2.075834   -1.431221    0.154159    0.002413   -0.007743   -0.099919
H    -1.858768    1.213594   -0.154455   -0.001408    0.006214    0.065686
H     2.351987    1.014146   -0.248941    0.053169   -0.160445   -1.924297
11
* Frequency(14)  735.6238
C     1.356348    0.572664   -0.017354   -0.001016    0.000896    0.010327
C     1.178047   -0.793447    0.127232   -0.005442    0.015061    0.179822
N     0.008461   -1.455243    0.101597    0.001167   -0.003484   -0.042985
C    -1.129852   -0.719188   -0.035640    0.007090   -0.020577   -0.251992
N    -0.994795    0.676423   -0.107518    0.002063   -0.005670   -0.069317
C     0.191967    1.416181   -0.041450   -0.010189    0.030334    0.368596
O    -2.273320   -1.199437    0.044925   -0.001484    0.006632    0.078456
O     0.162278    2.644326   -0.243524    0.002418   -0.007717   -0.087032
H     2.076078   -1.432005    0.144034    0.002413   -0.007743   -0.099919
H    -1.858911    1.214224   -0.147799   -0.001408    0.006214    0.065686
H     2.357374    0.997888   -0.443929    0.053169   -0.160445   -1.924297
11
* Frequency(14)  735.6238
C     1.356269    0.572734   -0.016548   -0.001016    0.000896    0.010327
C     1.177623   -0.792272    0.141265   -0.005442    0.015061    0.179822
N     0.008552   -1.455515    0.098243    0.001167   -0.003484   -0.042985
C    -1.129298   -0.720794   -0.055304    0.007090   -0.020577   -0.251992
N    -0.994634    0.675981   -0.112927    0.002063   -0.005670   -0.069317
C     0.191172    1.418548   -0.012687   -0.010189    0.030334    0.368596
O    -2.273436   -1.198919    0.051047   -0.001484    0.006632    0.078456
O     0.162467    2.643724   -0.250315    0.002418   -0.007717   -0.087032
H     2.076267   -1.432609    0.136237    0.002413   -0.007743   -0.099919
H    -1.859021    1.214708   -0.142674   -0.001408    0.006214    0.065686
H     2.361523    0.985368   -0.594090    0.053169   -0.160445   -1.924297
11
* Frequency(14)  735.6238
C     1.356222    0.572776   -0.016070   -0.001016    0.000896    0.010327
C     1.177371   -0.791575    0.149587   -0.005442    0.015061    0.179822
N     0.008606   -1.455676    0.096254    0.001167   -0.003484   -0.042985
C    -1.128970   -0.721746   -0.066967    0.007090   -0.020577   -0.251992
N    -0.994538    0.675719   -0.116136    0.002063   -0.005670   -0.069317
C     0.190701    1.419952    0.004372   -0.010189    0.030334    0.368596
O    -2.273505   -1.198612    0.054678   -0.001484    0.006632    0.078456
O     0.162578    2.643367   -0.254343    0.002418   -0.007717   -0.087032
H     2.076378   -1.432968    0.131613    0.002413   -0.007743   -0.099919
H    -1.859086    1.214996   -0.139633   -0.001408    0.006214    0.065686
H     2.363984    0.977942   -0.683150    0.053169   -0.160445   -1.924297
11
* Frequency(14)  735.6238
C     1.356212    0.572784   -0.015971   -0.001016    0.000896    0.010327
C     1.177319   -0.791431    0.151298   -0.005442    0.015061    0.179822
N     0.008617   -1.455709    0.095845    0.001167   -0.003484   -0.042985
C    -1.128903   -0.721942   -0.069364    0.007090   -0.020577   -0.251992
N    -0.994519    0.675665   -0.116795    0.002063   -0.005670   -0.069317
C     0.190604    1.420240    0.007879   -0.010189    0.030334    0.368596
O    -2.273519   -1.198549    0.055424   -0.001484    0.006632    0.078456
O     0.162601    2.643294   -0.255171    0.002418   -0.007717   -0.087032
H     2.076401   -1.433041    0.130662    0.002413   -0.007743   -0.099919
H    -1.859099    1.215055   -0.139008   -0.001408    0.006214    0.065686
H     2.364490    0.976415   -0.701458    0.053169   -0.160445   -1.924297
11
* Frequency(14)  735.6238
C     1.356241    0.572759   -0.016264   -0.001016    0.000896    0.010327
C     1.177473   -0.791857    0.146212   -0.005442    0.015061    0.179822
N     0.008584   -1.455611    0.097060    0.001167   -0.003484   -0.042985
C    -1.129103   -0.721360   -0.062237    0.007090   -0.020577   -0.251992
N    -0.994577    0.675825   -0.114834    0.002063   -0.005670   -0.069317
C     0.190892    1.419382   -0.002546   -0.010189    0.030334    0.368596
O    -2.273477   -1.198737    0.053205   -0.001484    0.006632    0.078456
O     0.162533    2.643512   -0.252709    0.002418   -0.007717   -0.087032
H     2.076333   -1.432822    0.133488    0.002413   -0.007743   -0.099919
H    -1.859059    1.214879   -0.140866   -0.001408    0.006214    0.065686
H     2.362986    0.980953   -0.647032    0.053169   -0.160445   -1.924297
11
* Frequency(14)  735.6238
C     1.356305    0.572703   -0.016914   -0.001016    0.000896    0.010327
C     1.177816   -0.792806    0.134880   -0.005442    0.015061    0.179822
N     0.008510   -1.455391    0.099769    0.001167   -0.003484   -0.042985
C    -1.129550   -0.720063   -0.046357    0.007090   -0.020577   -0.251992
N    -0.994707    0.676182   -0.110466    0.002063   -0.005670   -0.069317
C     0.191534    1.417471   -0.025774   -0.010189    0.030334    0.368596
O    -2.273383   -1.199155    0.048261   -0.001484    0.006632    0.078456
O     0.162381    2.643998   -0.247225    0.002418   -0.007717   -0.087032
H     2.076181   -1.432335    0.139785    0.002413   -0.007743   -0.099919
H    -1.858971    1.214488   -0.145006   -0.001408    0.006214    0.065686
H     2.359635    0.991064   -0.525768    0.053169   -0.160445   -1.924297
11
* Frequency(14)  735.6238
C     1.356397    0.572621   -0.017853   -0.001016    0.000896    0.010327
C     1.178311   -0.794176    0.118530   -0.005442    0.015061    0.179822
N     0.008404   -1.455075    0.103678    0.001167   -0.003484   -0.042985
C    -1.130195   -0.718192   -0.023446    0.007090   -0.020577   -0.251992
N    -0.994895    0.676698   -0.104164    0.002063   -0.005670   -0.069317
C     0.192460    1.414713   -0.059287   -0.010189    0.030334    0.368596
O    -2.273248   -1.199758    0.041128   -0.001484    0.006632    0.078456
O     0.162161    2.644700   -0.239312    0.002418   -0.007717   -0.087032
H     2.075962   -1.431631    0.148870    0.002413   -0.007743   -0.099919
H    -1.858843    1.213923   -0.150978   -0.001408    0.006214    0.065686
H     2.354801    1.005652   -0.350807    0.053169   -0.160445   -1.924297
11
* Frequency(14)  735.6238
C     1.356508    0.572523   -0.018979   -0.001016    0.000896    0.010327
C     1.178904   -0.795817    0.098934   -0.005442    0.015061    0.179822
N     0.008277   -1.454695    0.108362    0.001167   -0.003484   -0.042985
C    -1.130967   -0.715950    0.004015    0.007090   -0.020577   -0.251992
N    -0.995119    0.677316   -0.096610    0.002063   -0.005670   -0.069317
C     0.193571    1.411407   -0.099455   -0.010189    0.030334    0.368596
O    -2.273087   -1.200480    0.032578   -0.001484    0.006632    0.078456
O     0.161897    2.645541   -0.229828    0.002418   -0.007717   -0.087032
H     2.075699   -1.430787    0.159758    0.002413   -0.007743   -0.099919
H    -1.858689    1.213246   -0.158136   -0.001408    0.006214    0.065686
H     2.349007    1.023136   -0.141110    0.053169   -0.160445   -1.924297
11
* Frequency(14)  735.6238
C     1.356625    0.572420   -0.020169   -0.001016    0.000896    0.010327
C     1.179531   -0.797552    0.078216   -0.005442    0.015061    0.179822
N     0.008143   -1.454293    0.113314    0.001167   -0.003484   -0.042985
C    -1.131784   -0.713579    0.033048    0.007090   -0.020577   -0.251992
N    -0.995357    0.677969   -0.088624    0.002063   -0.005670   -0.069317
C     0.194745    1.407912   -0.141923   -0.010189    0.030334    0.368596
O    -2.272916   -1.201245    0.023539   -0.001484    0.006632    0.078456
O     0.161619    2.646430   -0.219800    0.002418   -0.007717   -0.087032
H     2.075420   -1.429895    0.171271    0.002413   -0.007743   -0.099919
H    -1.858527    1.212530   -0.165704   -0.001408    0.006214    0.065686
H     2.342881    1.041622    0.080600    0.053169   -0.160445   -1.924297
11
* Frequency(14)  735.6238
C     1.356736    0.572322   -0.021294   -0.001016    0.000896    0.010327
C     1.180124   -0.799193    0.058620   -0.005442    0.015061    0.179822
N     0.008016   -1.453914    0.117999    0.001167   -0.003484   -0.042985
C    -1.132557   -0.711336    0.060509    0.007090   -0.020577   -0.251992
N    -0.995582    0.678587   -0.081070    0.002063   -0.005670   -0.069317
C     0.195855    1.404606   -0.182090   -0.010189    0.030334    0.368596
O    -2.272754   -1.201967    0.014990   -0.001484    0.006632    0.078456
O     0.161355    2.647271   -0.210316    0.002418   -0.007717   -0.087032
H     2.075157   -1.429051    0.182159    0.002413   -0.007743   -0.099919
H    -1.858374    1.211853   -0.172862   -0.001408    0.006214    0.065686
H     2.337087    1.059106    0.290298    0.053169   -0.160445   -1.924297
11
* Frequency(14)  735.6238
C     1.356828    0.572241   -0.022233   -0.001016    0.000896    0.010327
C     1.180619   -0.800563    0.042270   -0.005442    0.015061    0.179822
N     0.007910   -1.453597    0.121907    0.001167   -0.003484   -0.042985
C    -1.133201   -0.709465    0.083420    0.007090   -0.020577   -0.251992
N    -0.995770    0.679103   -0.074768    0.002063   -0.005670   -0.069317
C     0.196781    1.401848   -0.215604   -0.010189    0.030334    0.368596
O    -2.272619   -1.202570    0.007856   -0.001484    0.006632    0.078456
O     0.161136    2.647973   -0.202403    0.002418   -0.007717   -0.087032
H     2.074938   -1.428347    0.191244    0.002413   -0.007743   -0.099919
H    -1.858246    1.211288   -0.178835   -0.001408    0.006214    0.065686
H     2.332253    1.073694    0.465258    0.053169   -0.160445   -1.924297
11
* Frequency(14)  735.6238
C     1.356892    0.572184   -0.022884   -0.001016    0.000896    0.010327
C     1.180961   -0.801512    0.030939   -0.005442    0.015061    0.179822
N     0.007836   -1.453377    0.124616    0.001167   -0.003484   -0.042985
C    -1.133648   -0.708169    0.099300    0.007090   -0.020577   -0.251992
N    -0.995900    0.679460   -0.070399    0.002063   -0.005670   -0.069317
C     0.197423    1.399937   -0.238832   -0.010189    0.030334    0.368596
O    -2.272525   -1.202988    0.002912   -0.001484    0.006632    0.078456
O     0.160983    2.648459   -0.196919    0.002418   -0.007717   -0.087032
H     2.074786   -1.427859    0.197541    0.002413   -0.007743   -0.099919
H    -1.858157    1.210896   -0.182974   -0.001408    0.006214    0.065686
H     2.328903    1.083805    0.586522    0.053169   -0.160445   -1.924297
11
* Frequency(14)  735.6238
C     1.356921    0.572159   -0.023176   -0.001016    0.000896    0.010327
C     1.181115   -0.801938    0.025852   -0.005442    0.015061    0.179822
N     0.007803   -1.453279    0.125831    0.001167   -0.003484   -0.042985
C    -1.133849   -0.707587    0.106428    0.007090   -0.020577   -0.251992
N    -0.995958    0.679620   -0.068439    0.002063   -0.005670   -0.069317
C     0.197712    1.399079   -0.249257   -0.010189    0.030334    0.368596
O    -2.272483   -1.203176    0.000693   -0.001484    0.006632    0.078456
O     0.160915    2.648677   -0.194457    0.002418   -0.007717   -0.087032
H     2.074718   -1.427640    0.200367    0.002413   -0.007743   -0.099919
H    -1.858117    1.210720   -0.184832   -0.001408    0.006214    0.065686
H     2.327399    1.088343    0.640949    0.053169   -0.160445   -1.924297
11
* Frequency(14)  735.6238
C     1.356911    0.572168   -0.023078   -0.001016    0.000896    0.010327
C     1.181064   -0.801795    0.027563   -0.005442    0.015061    0.179822
N     0.007814   -1.453312    0.125422    0.001167   -0.003484   -0.042985
C    -1.133781   -0.707782    0.104030    0.007090   -0.020577   -0.251992
N    -0.995938    0.679566   -0.069098    0.002063   -0.005670   -0.069317
C     0.197615    1.399367   -0.245750   -0.010189    0.030334    0.368596
O    -2.272497   -1.203113    0.001440   -0.001484    0.006632    0.078456
O     0.160938    2.648604   -0.195285    0.002418   -0.007717   -0.087032
H     2.074741   -1.427714    0.199416    0.002413   -0.007743   -0.099919
H    -1.858131    1.210779   -0.184207   -0.001408    0.006214    0.065686
H     2.327905    1.086817    0.622640    0.053169   -0.160445   -1.924297
11
* Frequency(14)  735.6238
C     1.356864    0.572209   -0.022600   -0.001016    0.000896    0.010327
C     1.180812   -0.801098    0.035886   -0.005442    0.015061    0.179822
N     0.007868   -1.453473    0.123433    0.001167   -0.003484   -0.042985
C    -1.133453   -0.708735    0.092367    0.007090   -0.020577   -0.251992
N    -0.995843    0.679304   -0.072306    0.002063   -0.005670   -0.069317
C     0.197143    1.400771   -0.228691   -0.010189    0.030334    0.368596
O    -2.272566   -1.202806    0.005071   -0.001484    0.006632    0.078456
O     0.161050    2.648247   -0.199313    0.002418   -0.007717   -0.087032
H     2.074852   -1.428072    0.194792    0.002413   -0.007743   -0.099919
H    -1.858196    1.211067   -0.181167   -0.001408    0.006214    0.065686
H     2.330365    1.079391    0.533580    0.053169   -0.160445   -1.924297
11
* Frequency(14)  735.6238
C     1.356785    0.572279   -0.021794   -0.001016    0.000896    0.010327
C     1.180387   -0.799922    0.049918   -0.005442    0.015061    0.179822
N     0.007959   -1.453745    0.120079    0.001167   -0.003484   -0.042985
C    -1.132900   -0.710341    0.072703    0.007090   -0.020577   -0.251992
N    -0.995682    0.678861   -0.077716    0.002063   -0.005670   -0.069317
C     0.196348    1.403138   -0.199928   -0.010189    0.030334    0.368596
O    -2.272682   -1.202288    0.011193   -0.001484    0.006632    0.078456
O     0.161238    2.647644   -0.206104    0.002418   -0.007717   -0.087032
H     2.075041   -1.428676    0.186995    0.002413   -0.007743   -0.099919
H    -1.858306    1.211552   -0.176041   -0.001408    0.006214    0.065686
H     2.334514    1.066871    0.383420    0.053169   -0.160445   -1.924297
11
* Frequency(14)  735.6238
C     1.356682    0.572370   -0.020747   -0.001016    0.000896    0.010327
C     1.179836   -0.798396    0.068139   -0.005442    0.015061    0.179822
N     0.008077   -1.454098    0.115723    0.001167   -0.003484   -0.042985
C    -1.132181   -0.712426    0.047169    0.007090   -0.020577   -0.251992
N    -0.995473    0.678287   -0.084739    0.002063   -0.005670   -0.069317
C     0.195316    1.406212   -0.162578   -0.010189    0.030334    0.368596
O    -2.272832   -1.201616    0.019143   -0.001484    0.006632    0.078456
O     0.161483    2.646862   -0.214923    0.002418   -0.007717   -0.087032
H     2.075285   -1.429461    0.176870    0.002413   -0.007743   -0.099919
H    -1.858448    1.212181   -0.169385   -0.001408    0.006214    0.065686
H     2.339902    1.050613    0.188432    0.053169   -0.160445   -1.924297
11
* Frequency(14)  735.6238
C     1.356566    0.572472   -0.019574   -0.001016    0.000896    0.010327
C     1.179217   -0.796685    0.088575   -0.005442    0.015061    0.179822
N     0.008210   -1.454494    0.110838    0.001167   -0.003484   -0.042985
C    -1.131376   -0.714764    0.018532    0.007090   -0.020577   -0.251992
N    -0.995238    0.677642   -0.092617    0.002063   -0.005670   -0.069317
C     0.194158    1.409660   -0.120689   -0.010189    0.030334    0.368596
O    -2.273001   -1.200862    0.028059   -0.001484    0.006632    0.078456
O     0.161758    2.645985   -0.224814    0.002418   -0.007717   -0.087032
H     2.075560   -1.430341    0.165515    0.002413   -0.007743   -0.099919
H    -1.858608    1.212888   -0.161920   -0.001408    0.006214    0.065686
H     2.345944    1.032379   -0.030255    0.053169   -0.160445   -1.924297
