11
* (null), Energy   -1000.0000000
C     1.589770    0.404289    0.010476    0.138132    0.540908   -0.040626
C     1.411370   -0.965186    0.118323   -0.453506   -0.803241    0.053849
N     0.241399   -1.624530    0.140582    0.225205    0.247461   -0.014531
C    -0.900298   -0.884733    0.048827   -0.015182   -0.182636    0.014932
N    -0.762264    0.508959   -0.063346    0.109924    0.169672   -0.011091
C     0.427306    1.242907   -0.091179   -0.195930    0.005012   -0.006083
O    -2.041444   -1.368814    0.058335   -0.021856    0.018120   -0.002058
O     0.393949    2.478247   -0.194845    0.036930   -0.107291    0.009955
H     2.308617   -1.598423    0.195226    1.032199    1.103952   -0.062341
H    -1.625843    1.043584   -0.132009   -0.138137   -0.229050    0.015614
H     2.579572    0.863274    0.000136    0.483225   -0.013598    0.014433
11
* Frequency(27) 1587.8408
C     1.605468    0.465760    0.005859    0.138132    0.540908   -0.040626
C     1.359832   -1.056471    0.124443   -0.453506   -0.803241    0.053849
N     0.266992   -1.596407    0.138931    0.225205    0.247461   -0.014531
C    -0.902023   -0.905489    0.050524   -0.015182   -0.182636    0.014932
N    -0.749772    0.528241   -0.064607    0.109924    0.169672   -0.011091
C     0.405039    1.243477   -0.091870   -0.195930    0.005012   -0.006083
O    -2.043927   -1.366755    0.058101   -0.021856    0.018120   -0.002058
O     0.398145    2.466054   -0.193713    0.036930   -0.107291    0.009955
H     2.425921   -1.472964    0.188141    1.032199    1.103952   -0.062341
H    -1.641542    1.017554   -0.130235   -0.138137   -0.229050    0.015614
H     2.634488    0.861729    0.001777    0.483225   -0.013598    0.014433
11
* Frequency(27) 1587.8408
C     1.619465    0.520570    0.001742    0.138132    0.540908   -0.040626
C     1.313878   -1.137863    0.129899   -0.453506   -0.803241    0.053849
N     0.289812   -1.571332    0.137458    0.225205    0.247461   -0.014531
C    -0.903562   -0.923996    0.052037   -0.015182   -0.182636    0.014932
N    -0.738634    0.545434   -0.065730    0.109924    0.169672   -0.011091
C     0.385186    1.243985   -0.092486   -0.195930    0.005012   -0.006083
O    -2.046142   -1.364918    0.057893   -0.021856    0.018120   -0.002058
O     0.401888    2.455182   -0.192705    0.036930   -0.107291    0.009955
H     2.530514   -1.361101    0.181824    1.032199    1.103952   -0.062341
H    -1.655539    0.994345   -0.128653   -0.138137   -0.229050    0.015614
H     2.683453    0.860351    0.003239    0.483225   -0.013598    0.014433
11
* Frequency(27) 1587.8408
C     1.630244    0.562779   -0.001428    0.138132    0.540908   -0.040626
C     1.278490   -1.200543    0.134101   -0.453506   -0.803241    0.053849
N     0.307386   -1.552022    0.136324    0.225205    0.247461   -0.014531
C    -0.904746   -0.938247    0.053202   -0.015182   -0.182636    0.014932
N    -0.730056    0.558674   -0.066596    0.109924    0.169672   -0.011091
C     0.369897    1.244376   -0.092961   -0.195930    0.005012   -0.006083
O    -2.047848   -1.363505    0.057732   -0.021856    0.018120   -0.002058
O     0.404769    2.446809   -0.191928    0.036930   -0.107291    0.009955
H     2.611060   -1.274955    0.176959    1.032199    1.103952   -0.062341
H    -1.666318    0.976471   -0.127434   -0.138137   -0.229050    0.015614
H     2.721161    0.859290    0.004365    0.483225   -0.013598    0.014433
11
* Frequency(27) 1587.8408
C     1.636637    0.587813   -0.003308    0.138132    0.540908   -0.040626
C     1.257500   -1.237718    0.136593   -0.453506   -0.803241    0.053849
N     0.317809   -1.540569    0.135652    0.225205    0.247461   -0.014531
C    -0.905449   -0.946700    0.053893   -0.015182   -0.182636    0.014932
N    -0.724968    0.566527   -0.067109    0.109924    0.169672   -0.011091
C     0.360829    1.244608   -0.093243   -0.195930    0.005012   -0.006083
O    -2.048859   -1.362666    0.057637   -0.021856    0.018120   -0.002058
O     0.406479    2.441844   -0.191467    0.036930   -0.107291    0.009955
H     2.658832   -1.223862    0.174074    1.032199    1.103952   -0.062341
H    -1.672712    0.965870   -0.126712   -0.138137   -0.229050    0.015614
H     2.743526    0.858661    0.005033    0.483225   -0.013598    0.014433
11
* Frequency(27) 1587.8408
C     1.637951    0.592960   -0.003695    0.138132    0.540908   -0.040626
C     1.253186   -1.245360    0.137106   -0.453506   -0.803241    0.053849
N     0.319951   -1.538214    0.135514    0.225205    0.247461   -0.014531
C    -0.905594   -0.948438    0.054035   -0.015182   -0.182636    0.014932
N    -0.723922    0.568141   -0.067215    0.109924    0.169672   -0.011091
C     0.358965    1.244655   -0.093301   -0.195930    0.005012   -0.006083
O    -2.049067   -1.362494    0.057617   -0.021856    0.018120   -0.002058
O     0.406830    2.440823   -0.191373    0.036930   -0.107291    0.009955
H     2.668653   -1.213359    0.173481    1.032199    1.103952   -0.062341
H    -1.674026    0.963691   -0.126563   -0.138137   -0.229050    0.015614
H     2.748124    0.858531    0.005171    0.483225   -0.013598    0.014433
11
* Frequency(27) 1587.8408
C     1.634044    0.577661   -0.002546    0.138132    0.540908   -0.040626
C     1.266012   -1.222642    0.135583   -0.453506   -0.803241    0.053849
N     0.313582   -1.545213    0.135925    0.225205    0.247461   -0.014531
C    -0.905164   -0.943272    0.053613   -0.015182   -0.182636    0.014932
N    -0.727032    0.563342   -0.066901    0.109924    0.169672   -0.011091
C     0.364506    1.244514   -0.093128   -0.195930    0.005012   -0.006083
O    -2.048449   -1.363006    0.057675   -0.021856    0.018120   -0.002058
O     0.405785    2.443858   -0.191654    0.036930   -0.107291    0.009955
H     2.639458   -1.244583    0.175244    1.032199    1.103952   -0.062341
H    -1.670119    0.970169   -0.127005   -0.138137   -0.229050    0.015614
H     2.734456    0.858916    0.004762    0.483225   -0.013598    0.014433
11
* Frequency(27) 1587.8408
C     1.625340    0.543574    0.000014    0.138132    0.540908   -0.040626
C     1.294591   -1.172024    0.132189   -0.453506   -0.803241    0.053849
N     0.299390   -1.560808    0.136840    0.225205    0.247461   -0.014531
C    -0.904207   -0.931763    0.052672   -0.015182   -0.182636    0.014932
N    -0.733959    0.552650   -0.066202    0.109924    0.169672   -0.011091
C     0.376853    1.244198   -0.092745   -0.195930    0.005012   -0.006083
O    -2.047072   -1.364148    0.057805   -0.021856    0.018120   -0.002058
O     0.403458    2.450619   -0.192281    0.036930   -0.107291    0.009955
H     2.574412   -1.314151    0.179173    1.032199    1.103952   -0.062341
H    -1.661414    0.984603   -0.127989   -0.138137   -0.229050    0.015614
H     2.704005    0.859773    0.003853    0.483225   -0.013598    0.014433
11
* Frequency(27) 1587.8408
C     1.612780    0.494394    0.003708    0.138132    0.540908   -0.040626
C     1.335825   -1.098992    0.127293   -0.453506   -0.803241    0.053849
N     0.278914   -1.583307    0.138162    0.225205    0.247461   -0.014531
C    -0.902827   -0.915157    0.051314   -0.015182   -0.182636    0.014932
N    -0.743953    0.537223   -0.065194    0.109924    0.169672   -0.011091
C     0.394667    1.243742   -0.092192   -0.195930    0.005012   -0.006083
O    -2.045084   -1.365795    0.057992   -0.021856    0.018120   -0.002058
O     0.400100    2.460374   -0.193186    0.036930   -0.107291    0.009955
H     2.480563   -1.414524    0.184841    1.032199    1.103952   -0.062341
H    -1.648854    1.005429   -0.129408   -0.138137   -0.229050    0.015614
H     2.660069    0.861009    0.002541    0.483225   -0.013598    0.014433
11
* Frequency(27) 1587.8408
C     1.597728    0.435449    0.008135    0.138132    0.540908   -0.040626
C     1.385245   -1.011460    0.121425   -0.453506   -0.803241    0.053849
N     0.254373   -1.610274    0.139745    0.225205    0.247461   -0.014531
C    -0.901173   -0.895255    0.049687   -0.015182   -0.182636    0.014932
N    -0.755932    0.518733   -0.063985    0.109924    0.169672   -0.011091
C     0.416019    1.243196   -0.091529   -0.195930    0.005012   -0.006083
O    -2.042703   -1.367770    0.058216   -0.021856    0.018120   -0.002058
O     0.396076    2.472066   -0.194271    0.036930   -0.107291    0.009955
H     2.368080   -1.534826    0.191634    1.032199    1.103952   -0.062341
H    -1.633801    1.030389   -0.131110   -0.138137   -0.229050    0.015614
H     2.607410    0.862491    0.000968    0.483225   -0.013598    0.014433
11
* Frequency(27) 1587.8408
C     1.581813    0.373128    0.012816    0.138132    0.540908   -0.040626
C     1.437496   -0.918913    0.115221   -0.453506   -0.803241    0.053849
N     0.228425   -1.638785    0.141419    0.225205    0.247461   -0.014531
C    -0.899423   -0.874212    0.047967   -0.015182   -0.182636    0.014932
N    -0.768597    0.499184   -0.062707    0.109924    0.169672   -0.011091
C     0.438593    1.242618   -0.090828   -0.195930    0.005012   -0.006083
O    -2.040185   -1.369858    0.058454   -0.021856    0.018120   -0.002058
O     0.391821    2.484428   -0.195418    0.036930   -0.107291    0.009955
H     2.249154   -1.662019    0.198817    1.032199    1.103952   -0.062341
H    -1.617885    1.056780   -0.132909   -0.138137   -0.229050    0.015614
H     2.551735    0.864058   -0.000695    0.483225   -0.013598    0.014433
11
* Frequency(27) 1587.8408
C     1.566760    0.314183    0.017243    0.138132    0.540908   -0.040626
C     1.486916   -0.831381    0.109353   -0.453506   -0.803241    0.053849
N     0.203884   -1.665752    0.143003    0.225205    0.247461   -0.014531
C    -0.897769   -0.854310    0.046339   -0.015182   -0.182636    0.014932
N    -0.780576    0.480694   -0.061498    0.109924    0.169672   -0.011091
C     0.459944    1.242072   -0.090165   -0.195930    0.005012   -0.006083
O    -2.037803   -1.371832    0.058678   -0.021856    0.018120   -0.002058
O     0.387797    2.496120   -0.196503    0.036930   -0.107291    0.009955
H     2.136672   -1.782321    0.205611    1.032199    1.103952   -0.062341
H    -1.602832    1.081740   -0.134610   -0.138137   -0.229050    0.015614
H     2.499076    0.865539   -0.002268    0.483225   -0.013598    0.014433
11
* Frequency(27) 1587.8408
C     1.554201    0.265003    0.020937    0.138132    0.540908   -0.040626
C     1.528150   -0.758349    0.104457   -0.453506   -0.803241    0.053849
N     0.183408   -1.688252    0.144324    0.225205    0.247461   -0.014531
C    -0.896389   -0.837704    0.044982   -0.015182   -0.182636    0.014932
N    -0.790570    0.465268   -0.060490    0.109924    0.169672   -0.011091
C     0.477758    1.241616   -0.089612   -0.195930    0.005012   -0.006083
O    -2.035816   -1.373480    0.058865   -0.021856    0.018120   -0.002058
O     0.384439    2.505875   -0.197408    0.036930   -0.107291    0.009955
H     2.042823   -1.882694    0.211279    1.032199    1.103952   -0.062341
H    -1.590272    1.102565   -0.136030   -0.138137   -0.229050    0.015614
H     2.455140    0.866776   -0.003580    0.483225   -0.013598    0.014433
11
* Frequency(27) 1587.8408
C     1.545496    0.230917    0.023497    0.138132    0.540908   -0.040626
C     1.556728   -0.707731    0.101063   -0.453506   -0.803241    0.053849
N     0.169216   -1.703846    0.145240    0.225205    0.247461   -0.014531
C    -0.895432   -0.826195    0.044041   -0.015182   -0.182636    0.014932
N    -0.797497    0.454575   -0.059791    0.109924    0.169672   -0.011091
C     0.490105    1.241300   -0.089229   -0.195930    0.005012   -0.006083
O    -2.034438   -1.374622    0.058995   -0.021856    0.018120   -0.002058
O     0.382112    2.512636   -0.198035    0.036930   -0.107291    0.009955
H     1.977776   -1.952262    0.215207    1.032199    1.103952   -0.062341
H    -1.581567    1.117000   -0.137014   -0.138137   -0.229050    0.015614
H     2.424689    0.867633   -0.004490    0.483225   -0.013598    0.014433
11
* Frequency(27) 1587.8408
C     1.541589    0.215618    0.024646    0.138132    0.540908   -0.040626
C     1.569555   -0.685012    0.099540   -0.453506   -0.803241    0.053849
N     0.162847   -1.710845    0.145651    0.225205    0.247461   -0.014531
C    -0.895002   -0.821029    0.043618   -0.015182   -0.182636    0.014932
N    -0.800606    0.449776   -0.059477    0.109924    0.169672   -0.011091
C     0.495647    1.241159   -0.089057   -0.195930    0.005012   -0.006083
O    -2.033820   -1.375134    0.059053   -0.021856    0.018120   -0.002058
O     0.381067    2.515670   -0.198317    0.036930   -0.107291    0.009955
H     1.948582   -1.983486    0.216971    1.032199    1.103952   -0.062341
H    -1.577660    1.123478   -0.137456   -0.138137   -0.229050    0.015614
H     2.411021    0.868017   -0.004898    0.483225   -0.013598    0.014433
11
* Frequency(27) 1587.8408
C     1.542903    0.220764    0.024260    0.138132    0.540908   -0.040626
C     1.565240   -0.692655    0.100052   -0.453506   -0.803241    0.053849
N     0.164989   -1.708491    0.145513    0.225205    0.247461   -0.014531
C    -0.895147   -0.822767    0.043760   -0.015182   -0.182636    0.014932
N    -0.799560    0.451391   -0.059583    0.109924    0.169672   -0.011091
C     0.493783    1.241206   -0.089115   -0.195930    0.005012   -0.006083
O    -2.034028   -1.374962    0.059033   -0.021856    0.018120   -0.002058
O     0.381418    2.514650   -0.198222    0.036930   -0.107291    0.009955
H     1.958402   -1.972983    0.216378    1.032199    1.103952   -0.062341
H    -1.578975    1.121299   -0.137307   -0.138137   -0.229050    0.015614
H     2.415619    0.867888   -0.004761    0.483225   -0.013598    0.014433
11
* Frequency(27) 1587.8408
C     1.549296    0.245798    0.022380    0.138132    0.540908   -0.040626
C     1.544251   -0.729830    0.102545   -0.453506   -0.803241    0.053849
N     0.175412   -1.697038    0.144840    0.225205    0.247461   -0.014531
C    -0.895849   -0.831220    0.044452   -0.015182   -0.182636    0.014932
N    -0.794473    0.459243   -0.060096    0.109924    0.169672   -0.011091
C     0.484715    1.241438   -0.089396   -0.195930    0.005012   -0.006083
O    -2.035040   -1.374123    0.058938   -0.021856    0.018120   -0.002058
O     0.383128    2.509684   -0.197762    0.036930   -0.107291    0.009955
H     2.006175   -1.921890    0.213492    1.032199    1.103952   -0.062341
H    -1.585368    1.110698   -0.136584   -0.138137   -0.229050    0.015614
H     2.437983    0.867258   -0.004093    0.483225   -0.013598    0.014433
11
* Frequency(27) 1587.8408
C     1.560075    0.288007    0.019209    0.138132    0.540908   -0.040626
C     1.508862   -0.792510    0.106747   -0.453506   -0.803241    0.053849
N     0.192986   -1.677727    0.143706    0.225205    0.247461   -0.014531
C    -0.897034   -0.845471    0.045617   -0.015182   -0.182636    0.014932
N    -0.785895    0.472484   -0.060962    0.109924    0.169672   -0.011091
C     0.469426    1.241830   -0.089871   -0.195930    0.005012   -0.006083
O    -2.036745   -1.372709    0.058777   -0.021856    0.018120   -0.002058
O     0.386009    2.501312   -0.196985    0.036930   -0.107291    0.009955
H     2.086721   -1.835744    0.208628    1.032199    1.103952   -0.062341
H    -1.596147    1.092824   -0.135366   -0.138137   -0.229050    0.015614
H     2.475691    0.866197   -0.002966    0.483225   -0.013598    0.014433
11
* Frequency(27) 1587.8408
C     1.574072    0.342817    0.015093    0.138132    0.540908   -0.040626
C     1.462909   -0.873902    0.112203   -0.453506   -0.803241    0.053849
N     0.215806   -1.652652    0.142234    0.225205    0.247461   -0.014531
C    -0.898573   -0.863978    0.047130   -0.015182   -0.182636    0.014932
N    -0.774757    0.489676   -0.062086    0.109924    0.169672   -0.011091
C     0.449572    1.242337   -0.090487   -0.195930    0.005012   -0.006083
O    -2.038960   -1.370873    0.058569   -0.021856    0.018120   -0.002058
O     0.389752    2.490440   -0.195976    0.036930   -0.107291    0.009955
H     2.191313   -1.723881    0.202311    1.032199    1.103952   -0.062341
H    -1.610144    1.069615   -0.133784   -0.138137   -0.229050    0.015614
H     2.524656    0.864820   -0.001504    0.483225   -0.013598    0.014433
11
* Frequency(27) 1587.8408
C     1.589770    0.404289    0.010476    0.138132    0.540908   -0.040626
C     1.411370   -0.965186    0.118323   -0.453506   -0.803241    0.053849
N     0.241399   -1.624530    0.140582    0.225205    0.247461   -0.014531
C    -0.900298   -0.884733    0.048827   -0.015182   -0.182636    0.014932
N    -0.762264    0.508959   -0.063346    0.109924    0.169672   -0.011091
C     0.427306    1.242907   -0.091179   -0.195930    0.005012   -0.006083
O    -2.041444   -1.368814    0.058335   -0.021856    0.018120   -0.002058
O     0.393949    2.478247   -0.194845    0.036930   -0.107291    0.009955
H     2.308617   -1.598423    0.195226    1.032199    1.103952   -0.062341
H    -1.625843    1.043584   -0.132009   -0.138137   -0.229050    0.015614
H     2.579572    0.863274    0.000136    0.483225   -0.013598    0.014433
