11
* (null), Energy   -1000.0000000
C     1.589770    0.404289    0.010476    0.014381   -0.033350   -0.344145
C     1.411370   -0.965186    0.118323    0.017552   -0.020775   -0.139942
N     0.241399   -1.624530    0.140582   -0.000454    0.016403    0.192110
C    -0.900298   -0.884733    0.048827    0.006599   -0.036551   -0.396611
N    -0.762264    0.508959   -0.063346   -0.004475    0.001067   -0.026728
C     0.427306    1.242907   -0.091179   -0.017650    0.054686    0.599057
O    -2.041444   -1.368814    0.058335   -0.010922    0.007487    0.102413
O     0.393949    2.478247   -0.194845    0.003144   -0.007397   -0.185694
H     2.308617   -1.598423    0.195226   -0.001271    0.022827    0.443856
H    -1.625843    1.043584   -0.132009   -0.011361    0.020555    0.205570
H     2.579572    0.863274    0.000136   -0.044246    0.141264    1.730230
11
* Frequency(15)  800.5773
C     1.591404    0.400499   -0.028634    0.014381   -0.033350   -0.344145
C     1.413365   -0.967547    0.102419    0.017552   -0.020775   -0.139942
N     0.241347   -1.622666    0.162415   -0.000454    0.016403    0.192110
C    -0.899548   -0.888887    0.003754    0.006599   -0.036551   -0.396611
N    -0.762773    0.509080   -0.066384   -0.004475    0.001067   -0.026728
C     0.425300    1.249122   -0.023099   -0.017650    0.054686    0.599057
O    -2.042685   -1.367963    0.069974   -0.010922    0.007487    0.102413
O     0.394306    2.477406   -0.215948    0.003144   -0.007397   -0.185694
H     2.308473   -1.595828    0.245668   -0.001271    0.022827    0.443856
H    -1.627134    1.045920   -0.108647   -0.011361    0.020555    0.205570
H     2.574544    0.879328    0.196768   -0.044246    0.141264    1.730230
11
* Frequency(15)  800.5773
C     1.592862    0.397119   -0.063507    0.014381   -0.033350   -0.344145
C     1.415144   -0.969653    0.088239    0.017552   -0.020775   -0.139942
N     0.241301   -1.621003    0.181881   -0.000454    0.016403    0.192110
C    -0.898879   -0.892591   -0.036434    0.006599   -0.036551   -0.396611
N    -0.763226    0.509188   -0.069092   -0.004475    0.001067   -0.026728
C     0.423511    1.254663    0.037603   -0.017650    0.054686    0.599057
O    -2.043791   -1.367204    0.080351   -0.010922    0.007487    0.102413
O     0.394624    2.476657   -0.234764    0.003144   -0.007397   -0.185694
H     2.308344   -1.593515    0.290644   -0.001271    0.022827    0.443856
H    -1.628285    1.048003   -0.087817   -0.011361    0.020555    0.205570
H     2.570061    0.893642    0.372091   -0.044246    0.141264    1.730230
11
* Frequency(15)  800.5773
C     1.593984    0.394517   -0.090362    0.014381   -0.033350   -0.344145
C     1.416513   -0.971274    0.077319    0.017552   -0.020775   -0.139942
N     0.241266   -1.619723    0.196872   -0.000454    0.016403    0.192110
C    -0.898364   -0.895443   -0.067383    0.006599   -0.036551   -0.396611
N    -0.763576    0.509271   -0.071178   -0.004475    0.001067   -0.026728
C     0.422134    1.258930    0.084350   -0.017650    0.054686    0.599057
O    -2.044644   -1.366620    0.088343   -0.010922    0.007487    0.102413
O     0.394870    2.476080   -0.249255    0.003144   -0.007397   -0.185694
H     2.308245   -1.591734    0.325279   -0.001271    0.022827    0.443856
H    -1.629172    1.049607   -0.071776   -0.011361    0.020555    0.205570
H     2.566608    0.904666    0.507108   -0.044246    0.141264    1.730230
11
* Frequency(15)  800.5773
C     1.594649    0.392974   -0.106289    0.014381   -0.033350   -0.344145
C     1.417326   -0.972235    0.070842    0.017552   -0.020775   -0.139942
N     0.241245   -1.618964    0.205763   -0.000454    0.016403    0.192110
C    -0.898059   -0.897135   -0.085739    0.006599   -0.036551   -0.396611
N    -0.763783    0.509321   -0.072415   -0.004475    0.001067   -0.026728
C     0.421317    1.261461    0.112075   -0.017650    0.054686    0.599057
O    -2.045149   -1.366274    0.093083   -0.010922    0.007487    0.102413
O     0.395015    2.475737   -0.257849    0.003144   -0.007397   -0.185694
H     2.308186   -1.590678    0.345822   -0.001271    0.022827    0.443856
H    -1.629698    1.050559   -0.062262   -0.011361    0.020555    0.205570
H     2.564560    0.911204    0.587186   -0.044246    0.141264    1.730230
11
* Frequency(15)  800.5773
C     1.594786    0.392656   -0.109564    0.014381   -0.033350   -0.344145
C     1.417493   -0.972433    0.069511    0.017552   -0.020775   -0.139942
N     0.241241   -1.618808    0.207591   -0.000454    0.016403    0.192110
C    -0.897996   -0.897482   -0.089513    0.006599   -0.036551   -0.396611
N    -0.763825    0.509331   -0.072669   -0.004475    0.001067   -0.026728
C     0.421149    1.261982    0.117775   -0.017650    0.054686    0.599057
O    -2.045253   -1.366202    0.094057   -0.010922    0.007487    0.102413
O     0.395045    2.475667   -0.259616    0.003144   -0.007397   -0.185694
H     2.308174   -1.590460    0.350045   -0.001271    0.022827    0.443856
H    -1.629806    1.050754   -0.060306   -0.011361    0.020555    0.205570
H     2.564139    0.912548    0.603648   -0.044246    0.141264    1.730230
11
* Frequency(15)  800.5773
C     1.594379    0.393599   -0.099830    0.014381   -0.033350   -0.344145
C     1.416996   -0.971845    0.073469    0.017552   -0.020775   -0.139942
N     0.241253   -1.619272    0.202157   -0.000454    0.016403    0.192110
C    -0.898183   -0.896449   -0.078295    0.006599   -0.036551   -0.396611
N    -0.763699    0.509301   -0.071913   -0.004475    0.001067   -0.026728
C     0.421648    1.260435    0.100831   -0.017650    0.054686    0.599057
O    -2.044944   -1.366414    0.091160   -0.010922    0.007487    0.102413
O     0.394956    2.475876   -0.254363    0.003144   -0.007397   -0.185694
H     2.308210   -1.591106    0.337491   -0.001271    0.022827    0.443856
H    -1.629484    1.050173   -0.066120   -0.011361    0.020555    0.205570
H     2.565391    0.908552    0.554711   -0.044246    0.141264    1.730230
11
* Frequency(15)  800.5773
C     1.593473    0.395701   -0.078143    0.014381   -0.033350   -0.344145
C     1.415890   -0.970536    0.082287    0.017552   -0.020775   -0.139942
N     0.241282   -1.620306    0.190051   -0.000454    0.016403    0.192110
C    -0.898599   -0.894145   -0.053302    0.006599   -0.036551   -0.396611
N    -0.763417    0.509234   -0.070229   -0.004475    0.001067   -0.026728
C     0.422761    1.256989    0.063081   -0.017650    0.054686    0.599057
O    -2.044256   -1.366886    0.084707   -0.010922    0.007487    0.102413
O     0.394758    2.476342   -0.242662    0.003144   -0.007397   -0.185694
H     2.308290   -1.592544    0.309520   -0.001271    0.022827    0.443856
H    -1.628769    1.048877   -0.079074   -0.011361    0.020555    0.205570
H     2.568179    0.899650    0.445676   -0.044246    0.141264    1.730230
11
* Frequency(15)  800.5773
C     1.592166    0.398733   -0.046852    0.014381   -0.033350   -0.344145
C     1.414294   -0.968647    0.095011    0.017552   -0.020775   -0.139942
N     0.241323   -1.621797    0.172584   -0.000454    0.016403    0.192110
C    -0.899199   -0.890822   -0.017241    0.006599   -0.036551   -0.396611
N    -0.763010    0.509137   -0.067799   -0.004475    0.001067   -0.026728
C     0.424366    1.252017    0.008613   -0.017650    0.054686    0.599057
O    -2.043263   -1.367567    0.075395   -0.010922    0.007487    0.102413
O     0.394472    2.477015   -0.225778    0.003144   -0.007397   -0.185694
H     2.308406   -1.594620    0.269164   -0.001271    0.022827    0.443856
H    -1.627736    1.047009   -0.097765   -0.011361    0.020555    0.205570
H     2.572202    0.886806    0.288361   -0.044246    0.141264    1.730230
11
* Frequency(15)  800.5773
C     1.590599    0.402368   -0.009350    0.014381   -0.033350   -0.344145
C     1.412382   -0.966383    0.110261    0.017552   -0.020775   -0.139942
N     0.241373   -1.623585    0.151649   -0.000454    0.016403    0.192110
C    -0.899918   -0.886839    0.025979    0.006599   -0.036551   -0.396611
N    -0.762522    0.509020   -0.064886   -0.004475    0.001067   -0.026728
C     0.426289    1.246057   -0.056668   -0.017650    0.054686    0.599057
O    -2.042073   -1.368383    0.064235   -0.010922    0.007487    0.102413
O     0.394130    2.477821   -0.205542    0.003144   -0.007397   -0.185694
H     2.308544   -1.597108    0.220796   -0.001271    0.022827    0.443856
H    -1.626498    1.044769   -0.120167   -0.011361    0.020555    0.205570
H     2.577024    0.871412    0.099812   -0.044246    0.141264    1.730230
11
* Frequency(15)  800.5773
C     1.588942    0.406210    0.030301    0.014381   -0.033350   -0.344145
C     1.410359   -0.963990    0.126385    0.017552   -0.020775   -0.139942
N     0.241425   -1.625475    0.129515   -0.000454    0.016403    0.192110
C    -0.900678   -0.882628    0.071675    0.006599   -0.036551   -0.396611
N    -0.762007    0.508897   -0.061806   -0.004475    0.001067   -0.026728
C     0.428323    1.239757   -0.125689   -0.017650    0.054686    0.599057
O    -2.040814   -1.369245    0.052435   -0.010922    0.007487    0.102413
O     0.393767    2.478673   -0.184147    0.003144   -0.007397   -0.185694
H     2.308691   -1.599738    0.169656   -0.001271    0.022827    0.443856
H    -1.625189    1.042400   -0.143852   -0.011361    0.020555    0.205570
H     2.582121    0.855136   -0.099539   -0.044246    0.141264    1.730230
11
* Frequency(15)  800.5773
C     1.587375    0.409844    0.067804    0.014381   -0.033350   -0.344145
C     1.408447   -0.961726    0.141635    0.017552   -0.020775   -0.139942
N     0.241475   -1.627262    0.108580   -0.000454    0.016403    0.192110
C    -0.901397   -0.878645    0.114895    0.006599   -0.036551   -0.396611
N    -0.761519    0.508781   -0.058894   -0.004475    0.001067   -0.026728
C     0.430246    1.233797   -0.190971   -0.017650    0.054686    0.599057
O    -2.039624   -1.370061    0.041275   -0.010922    0.007487    0.102413
O     0.393425    2.479479   -0.163912    0.003144   -0.007397   -0.185694
H     2.308829   -1.602225    0.121288   -0.001271    0.022827    0.443856
H    -1.623951    1.040160   -0.166254   -0.011361    0.020555    0.205570
H     2.586943    0.839742   -0.288088   -0.044246    0.141264    1.730230
11
* Frequency(15)  800.5773
C     1.586067    0.412876    0.099094    0.014381   -0.033350   -0.344145
C     1.406851   -0.959837    0.154358    0.017552   -0.020775   -0.139942
N     0.241516   -1.628753    0.091113   -0.000454    0.016403    0.192110
C    -0.901997   -0.875322    0.150955    0.006599   -0.036551   -0.396611
N    -0.761112    0.508684   -0.056464   -0.004475    0.001067   -0.026728
C     0.431851    1.228825   -0.245438   -0.017650    0.054686    0.599057
O    -2.038631   -1.370742    0.031963   -0.010922    0.007487    0.102413
O     0.393139    2.480151   -0.147028    0.003144   -0.007397   -0.185694
H     2.308945   -1.604301    0.080931   -0.001271    0.022827    0.443856
H    -1.622918    1.038291   -0.184944   -0.011361    0.020555    0.205570
H     2.590966    0.826898   -0.445404   -0.044246    0.141264    1.730230
11
* Frequency(15)  800.5773
C     1.585161    0.414978    0.120781    0.014381   -0.033350   -0.344145
C     1.405745   -0.958527    0.163177    0.017552   -0.020775   -0.139942
N     0.241544   -1.629787    0.079007   -0.000454    0.016403    0.192110
C    -0.902413   -0.873018    0.175949    0.006599   -0.036551   -0.396611
N    -0.760830    0.508617   -0.054779   -0.004475    0.001067   -0.026728
C     0.432963    1.225379   -0.283189   -0.017650    0.054686    0.599057
O    -2.037943   -1.371213    0.025510   -0.010922    0.007487    0.102413
O     0.392941    2.480617   -0.135326    0.003144   -0.007397   -0.185694
H     2.309025   -1.605739    0.052961   -0.001271    0.022827    0.443856
H    -1.622202    1.036996   -0.197899   -0.011361    0.020555    0.205570
H     2.593754    0.817996   -0.554438   -0.044246    0.141264    1.730230
11
* Frequency(15)  800.5773
C     1.584754    0.415921    0.130515    0.014381   -0.033350   -0.344145
C     1.405248   -0.957940    0.167135    0.017552   -0.020775   -0.139942
N     0.241557   -1.630251    0.073573   -0.000454    0.016403    0.192110
C    -0.902600   -0.871984    0.187166    0.006599   -0.036551   -0.396611
N    -0.760703    0.508587   -0.054023   -0.004475    0.001067   -0.026728
C     0.433462    1.223832   -0.300133   -0.017650    0.054686    0.599057
O    -2.037634   -1.371425    0.022613   -0.010922    0.007487    0.102413
O     0.392852    2.480827   -0.130074    0.003144   -0.007397   -0.185694
H     2.309061   -1.606385    0.040407   -0.001271    0.022827    0.443856
H    -1.621880    1.036415   -0.203713   -0.011361    0.020555    0.205570
H     2.595006    0.814001   -0.603376   -0.044246    0.141264    1.730230
11
* Frequency(15)  800.5773
C     1.584891    0.415604    0.127241    0.014381   -0.033350   -0.344145
C     1.405415   -0.958138    0.165804    0.017552   -0.020775   -0.139942
N     0.241553   -1.630095    0.075401   -0.000454    0.016403    0.192110
C    -0.902537   -0.872332    0.183393    0.006599   -0.036551   -0.396611
N    -0.760746    0.508597   -0.054278   -0.004475    0.001067   -0.026728
C     0.433294    1.224353   -0.294433   -0.017650    0.054686    0.599057
O    -2.037738   -1.371354    0.023587   -0.010922    0.007487    0.102413
O     0.392882    2.480756   -0.131841    0.003144   -0.007397   -0.185694
H     2.309049   -1.606168    0.044630   -0.001271    0.022827    0.443856
H    -1.621988    1.036610   -0.201757   -0.011361    0.020555    0.205570
H     2.594585    0.815345   -0.586913   -0.044246    0.141264    1.730230
11
* Frequency(15)  800.5773
C     1.585557    0.414060    0.111313    0.014381   -0.033350   -0.344145
C     1.406227   -0.959099    0.159327    0.017552   -0.020775   -0.139942
N     0.241532   -1.629336    0.084292   -0.000454    0.016403    0.192110
C    -0.902232   -0.874024    0.165037    0.006599   -0.036551   -0.396611
N    -0.760953    0.508646   -0.055515   -0.004475    0.001067   -0.026728
C     0.432477    1.226884   -0.266707   -0.017650    0.054686    0.599057
O    -2.038243   -1.371007    0.028327   -0.010922    0.007487    0.102413
O     0.393027    2.480414   -0.140435    0.003144   -0.007397   -0.185694
H     2.308990   -1.605111    0.065172   -0.001271    0.022827    0.443856
H    -1.622514    1.037562   -0.192243   -0.011361    0.020555    0.205570
H     2.592537    0.821883   -0.506835   -0.044246    0.141264    1.730230
11
* Frequency(15)  800.5773
C     1.586679    0.411458    0.084458    0.014381   -0.033350   -0.344145
C     1.407597   -0.960720    0.148407    0.017552   -0.020775   -0.139942
N     0.241497   -1.628056    0.099284   -0.000454    0.016403    0.192110
C    -0.901717   -0.876876    0.134088    0.006599   -0.036551   -0.396611
N    -0.761302    0.508729   -0.057600   -0.004475    0.001067   -0.026728
C     0.431100    1.231151   -0.219961   -0.017650    0.054686    0.599057
O    -2.039096   -1.370423    0.036319   -0.010922    0.007487    0.102413
O     0.393273    2.479837   -0.154925    0.003144   -0.007397   -0.185694
H     2.308891   -1.603330    0.099808   -0.001271    0.022827    0.443856
H    -1.623401    1.039166   -0.176202   -0.011361    0.020555    0.205570
H     2.589084    0.832906   -0.371819   -0.044246    0.141264    1.730230
11
* Frequency(15)  800.5773
C     1.588136    0.408079    0.049586    0.014381   -0.033350   -0.344145
C     1.409376   -0.962825    0.134227    0.017552   -0.020775   -0.139942
N     0.241451   -1.626394    0.118750   -0.000454    0.016403    0.192110
C    -0.901048   -0.880580    0.093900    0.006599   -0.036551   -0.396611
N    -0.761756    0.508837   -0.060309   -0.004475    0.001067   -0.026728
C     0.429312    1.236692   -0.159258   -0.017650    0.054686    0.599057
O    -2.040202   -1.369665    0.046696   -0.010922    0.007487    0.102413
O     0.393591    2.479087   -0.173742    0.003144   -0.007397   -0.185694
H     2.308762   -1.601017    0.144784   -0.001271    0.022827    0.443856
H    -1.624552    1.041248   -0.155371   -0.011361    0.020555    0.205570
H     2.584601    0.847220   -0.196495   -0.044246    0.141264    1.730230
11
* Frequency(15)  800.5773
C     1.589770    0.404289    0.010476    0.014381   -0.033350   -0.344145
C     1.411370   -0.965186    0.118323    0.017552   -0.020775   -0.139942
N     0.241399   -1.624530    0.140582   -0.000454    0.016403    0.192110
C    -0.900298   -0.884733    0.048827    0.006599   -0.036551   -0.396611
N    -0.762264    0.508959   -0.063346   -0.004475    0.001067   -0.026728
C     0.427306    1.242907   -0.091179   -0.017650    0.054686    0.599057
O    -2.041444   -1.368814    0.058335   -0.010922    0.007487    0.102413
O     0.393949    2.478247   -0.194845    0.003144   -0.007397   -0.185694
H     2.308617   -1.598423    0.195226   -0.001271    0.022827    0.443856
H    -1.625843    1.043584   -0.132009   -0.011361    0.020555    0.205570
H     2.579572    0.863274    0.000136   -0.044246    0.141264    1.730230
