11
* (null), Energy   -1000.0000000
C     1.356566    0.572472   -0.019574   -0.024756    0.075872    0.918438
C     1.179217   -0.796685    0.088575    0.001956   -0.006040   -0.076211
N     0.008210   -1.454494    0.110838    0.022899   -0.069291   -0.839339
C    -1.131376   -0.714764    0.018532    0.001447   -0.004473   -0.056429
N    -0.995238    0.677642   -0.092617   -0.009698    0.029788    0.358173
C     0.194158    1.409660   -0.120689   -0.005045    0.015549    0.189573
O    -2.273001   -1.200862    0.028059   -0.007494    0.023334    0.279821
O     0.161758    2.645985   -0.224814    0.017585   -0.055202   -0.659121
H     2.075560   -1.430341    0.165515    0.009724   -0.029088   -0.355676
H    -1.858608    1.212888   -0.161920   -0.004447    0.015934    0.184863
H     2.345944    1.032379   -0.030255   -0.034334    0.103814    1.255074
11
* Frequency(7)  191.0221
C     1.353753    0.581094    0.084802   -0.024756    0.075872    0.918438
C     1.179439   -0.797371    0.079914    0.001956   -0.006040   -0.076211
N     0.010812   -1.462369    0.015452    0.022899   -0.069291   -0.839339
C    -1.131211   -0.715272    0.012119    0.001447   -0.004473   -0.056429
N    -0.996340    0.681028   -0.051912   -0.009698    0.029788    0.358173
C     0.193584    1.411427   -0.099145   -0.005045    0.015549    0.189573
O    -2.273853   -1.198211    0.059859   -0.007494    0.023334    0.279821
O     0.163757    2.639712   -0.299720    0.017585   -0.055202   -0.659121
H     2.076665   -1.433646    0.125094    0.009724   -0.029088   -0.355676
H    -1.859113    1.214699   -0.140911   -0.004447    0.015934    0.184863
H     2.342042    1.044177    0.112378   -0.034334    0.103814    1.255074
11
* Frequency(7)  191.0221
C     1.351245    0.588782    0.177867   -0.024756    0.075872    0.918438
C     1.179638   -0.797983    0.072192    0.001956   -0.006040   -0.076211
N     0.013133   -1.469390   -0.069598    0.022899   -0.069291   -0.839339
C    -1.131065   -0.715726    0.006401    0.001447   -0.004473   -0.056429
N    -0.997323    0.684046   -0.015619   -0.009698    0.029788    0.358173
C     0.193073    1.413002   -0.079936   -0.005045    0.015549    0.189573
O    -2.274612   -1.195846    0.088213   -0.007494    0.023334    0.279821
O     0.165539    2.634118   -0.366508    0.017585   -0.055202   -0.659121
H     2.077650   -1.436594    0.089053    0.009724   -0.029088   -0.355676
H    -1.859564    1.216313   -0.122179   -0.004447    0.015934    0.184863
H     2.338563    1.054697    0.239554   -0.034334    0.103814    1.255074
11
* Frequency(7)  191.0221
C     1.349313    0.594703    0.249536   -0.024756    0.075872    0.918438
C     1.179790   -0.798454    0.066245    0.001956   -0.006040   -0.076211
N     0.014920   -1.474797   -0.135095    0.022899   -0.069291   -0.839339
C    -1.130952   -0.716075    0.001997    0.001447   -0.004473   -0.056429
N    -0.998080    0.686371    0.012331   -0.009698    0.029788    0.358173
C     0.192679    1.414215   -0.065142   -0.005045    0.015549    0.189573
O    -2.275197   -1.194025    0.110049   -0.007494    0.023334    0.279821
O     0.166911    2.629811   -0.417942    0.017585   -0.055202   -0.659121
H     2.078409   -1.438864    0.061299    0.009724   -0.029088   -0.355676
H    -1.859911    1.217557   -0.107754   -0.004447    0.015934    0.184863
H     2.335884    1.062798    0.337492   -0.034334    0.103814    1.255074
11
* Frequency(7)  191.0221
C     1.348167    0.598214    0.292043   -0.024756    0.075872    0.918438
C     1.179881   -0.798734    0.062718    0.001956   -0.006040   -0.076211
N     0.015979   -1.478004   -0.173941    0.022899   -0.069291   -0.839339
C    -1.130885   -0.716282   -0.000614    0.001447   -0.004473   -0.056429
N    -0.998529    0.687749    0.028907   -0.009698    0.029788    0.358173
C     0.192446    1.414935   -0.056369   -0.005045    0.015549    0.189573
O    -2.275544   -1.192945    0.122999   -0.007494    0.023334    0.279821
O     0.167725    2.627256   -0.448447    0.017585   -0.055202   -0.659121
H     2.078859   -1.440210    0.044837    0.009724   -0.029088   -0.355676
H    -1.860117    1.218294   -0.099198   -0.004447    0.015934    0.184863
H     2.334295    1.067602    0.395580   -0.034334    0.103814    1.255074
11
* Frequency(7)  191.0221
C     1.347932    0.598936    0.300782   -0.024756    0.075872    0.918438
C     1.179899   -0.798791    0.061992    0.001956   -0.006040   -0.076211
N     0.016197   -1.478663   -0.181927    0.022899   -0.069291   -0.839339
C    -1.130871   -0.716324   -0.001151    0.001447   -0.004473   -0.056429
N    -0.998621    0.688033    0.032315   -0.009698    0.029788    0.358173
C     0.192398    1.415083   -0.054565   -0.005045    0.015549    0.189573
O    -2.275615   -1.192723    0.125662   -0.007494    0.023334    0.279821
O     0.167892    2.626731   -0.454718    0.017585   -0.055202   -0.659121
H     2.078951   -1.440487    0.041453    0.009724   -0.029088   -0.355676
H    -1.860159    1.218446   -0.097439   -0.004447    0.015934    0.184863
H     2.333968    1.068590    0.407521   -0.034334    0.103814    1.255074
11
* Frequency(7)  191.0221
C     1.348632    0.596790    0.274805   -0.024756    0.075872    0.918438
C     1.179844   -0.798621    0.064148    0.001956   -0.006040   -0.076211
N     0.015550   -1.476703   -0.158187    0.022899   -0.069291   -0.839339
C    -1.130912   -0.716198    0.000445    0.001447   -0.004473   -0.056429
N    -0.998347    0.687190    0.022185   -0.009698    0.029788    0.358173
C     0.192541    1.414643   -0.059927   -0.005045    0.015549    0.189573
O    -2.275403   -1.193383    0.117747   -0.007494    0.023334    0.279821
O     0.167395    2.628292   -0.436076    0.017585   -0.055202   -0.659121
H     2.078676   -1.439664    0.051513    0.009724   -0.029088   -0.355676
H    -1.860033    1.217995   -0.102668   -0.004447    0.015934    0.184863
H     2.334939    1.065654    0.372022   -0.034334    0.103814    1.255074
11
* Frequency(7)  191.0221
C     1.350192    0.592009    0.216927   -0.024756    0.075872    0.918438
C     1.179721   -0.798240    0.068951    0.001956   -0.006040   -0.076211
N     0.014107   -1.472337   -0.105295    0.022899   -0.069291   -0.839339
C    -1.131003   -0.715916    0.004001    0.001447   -0.004473   -0.056429
N    -0.997736    0.685313   -0.000386   -0.009698    0.029788    0.358173
C     0.192858    1.413663   -0.071873   -0.005045    0.015549    0.189573
O    -2.274931   -1.194854    0.100114   -0.007494    0.023334    0.279821
O     0.166286    2.631771   -0.394540    0.017585   -0.055202   -0.659121
H     2.078063   -1.437831    0.073927    0.009724   -0.029088   -0.355676
H    -1.859753    1.216991   -0.114317   -0.004447    0.015934    0.184863
H     2.337103    1.059112    0.292931   -0.034334    0.103814    1.255074
11
* Frequency(7)  191.0221
C     1.352443    0.585111    0.133421   -0.024756    0.075872    0.918438
C     1.179543   -0.797691    0.075880    0.001956   -0.006040   -0.076211
N     0.012025   -1.466037   -0.028980    0.022899   -0.069291   -0.839339
C    -1.131135   -0.715509    0.009132    0.001447   -0.004473   -0.056429
N    -0.996854    0.682605   -0.032952   -0.009698    0.029788    0.358173
C     0.193317    1.412250   -0.089110   -0.005045    0.015549    0.189573
O    -2.274249   -1.196975    0.074672   -0.007494    0.023334    0.279821
O     0.164688    2.636790   -0.334611    0.017585   -0.055202   -0.659121
H     2.077179   -1.435186    0.106265    0.009724   -0.029088   -0.355676
H    -1.859349    1.215542   -0.131125   -0.004447    0.015934    0.184863
H     2.340225    1.049673    0.178818   -0.034334    0.103814    1.255074
11
* Frequency(7)  191.0221
C     1.355140    0.576843    0.033336   -0.024756    0.075872    0.918438
C     1.179330   -0.797033    0.084185    0.001956   -0.006040   -0.076211
N     0.009529   -1.458486    0.062485    0.022899   -0.069291   -0.839339
C    -1.131292   -0.715022    0.015281    0.001447   -0.004473   -0.056429
N    -0.995797    0.679359   -0.071983   -0.009698    0.029788    0.358173
C     0.193867    1.410555   -0.109768   -0.005045    0.015549    0.189573
O    -2.273433   -1.199518    0.044179   -0.007494    0.023334    0.279821
O     0.162771    2.642805   -0.262785    0.017585   -0.055202   -0.659121
H     2.076120   -1.432016    0.145025    0.009724   -0.029088   -0.355676
H    -1.858864    1.213806   -0.151271   -0.004447    0.015934    0.184863
H     2.343966    1.038360    0.042048   -0.034334    0.103814    1.255074
11
* Frequency(7)  191.0221
C     1.357993    0.568101   -0.072483   -0.024756    0.075872    0.918438
C     1.179104   -0.796337    0.092966    0.001956   -0.006040   -0.076211
N     0.006891   -1.450502    0.159191    0.022899   -0.069291   -0.839339
C    -1.131459   -0.714506    0.021782    0.001447   -0.004473   -0.056429
N    -0.994680    0.675926   -0.113251   -0.009698    0.029788    0.358173
C     0.194448    1.408764   -0.131610   -0.005045    0.015549    0.189573
O    -2.272569   -1.202207    0.011939   -0.007494    0.023334    0.279821
O     0.160745    2.649166   -0.186843    0.017585   -0.055202   -0.659121
H     2.074999   -1.428665    0.186004    0.009724   -0.029088   -0.355676
H    -1.858352    1.211970   -0.172570   -0.004447    0.015934    0.184863
H     2.347922    1.026399   -0.102557   -0.034334    0.103814    1.255074
11
* Frequency(7)  191.0221
C     1.360690    0.559833   -0.172569   -0.024756    0.075872    0.918438
C     1.178891   -0.795678    0.101271    0.001956   -0.006040   -0.076211
N     0.004395   -1.442952    0.250656    0.022899   -0.069291   -0.839339
C    -1.131617   -0.714019    0.027932    0.001447   -0.004473   -0.056429
N    -0.993623    0.672680   -0.152282   -0.009698    0.029788    0.358173
C     0.194998    1.407069   -0.152268   -0.005045    0.015549    0.189573
O    -2.271753   -1.204750   -0.018554   -0.007494    0.023334    0.279821
O     0.158829    2.655181   -0.115017    0.017585   -0.055202   -0.659121
H     2.073940   -1.425495    0.224764    0.009724   -0.029088   -0.355676
H    -1.857867    1.210233   -0.192715   -0.004447    0.015934    0.184863
H     2.351664    1.015086   -0.239327   -0.034334    0.103814    1.255074
11
* Frequency(7)  191.0221
C     1.362941    0.552934   -0.256075   -0.024756    0.075872    0.918438
C     1.178714   -0.795129    0.108200    0.001956   -0.006040   -0.076211
N     0.002313   -1.436652    0.326971    0.022899   -0.069291   -0.839339
C    -1.131748   -0.713612    0.033062    0.001447   -0.004473   -0.056429
N    -0.992741    0.669972   -0.184848   -0.009698    0.029788    0.358173
C     0.195457    1.405656   -0.169505   -0.005045    0.015549    0.189573
O    -2.271071   -1.206871   -0.043996   -0.007494    0.023334    0.279821
O     0.157230    2.660200   -0.055088    0.017585   -0.055202   -0.659121
H     2.073056   -1.422851    0.257102    0.009724   -0.029088   -0.355676
H    -1.857463    1.208785   -0.209523   -0.004447    0.015934    0.184863
H     2.354786    1.005647   -0.353440   -0.034334    0.103814    1.255074
11
* Frequency(7)  191.0221
C     1.364501    0.548153   -0.313952   -0.024756    0.075872    0.918438
C     1.178590   -0.794749    0.113003    0.001956   -0.006040   -0.076211
N     0.000870   -1.432285    0.379863    0.022899   -0.069291   -0.839339
C    -1.131840   -0.713331    0.036618    0.001447   -0.004473   -0.056429
N    -0.992130    0.668095   -0.207419   -0.009698    0.029788    0.358173
C     0.195775    1.404676   -0.181451   -0.005045    0.015549    0.189573
O    -2.270599   -1.208342   -0.061630   -0.007494    0.023334    0.279821
O     0.156122    2.663679   -0.013552    0.017585   -0.055202   -0.659121
H     2.072443   -1.421018    0.279516    0.009724   -0.029088   -0.355676
H    -1.857183    1.207780   -0.221173   -0.004447    0.015934    0.184863
H     2.356949    0.999105   -0.432532   -0.034334    0.103814    1.255074
11
* Frequency(7)  191.0221
C     1.365201    0.546007   -0.339929   -0.024756    0.075872    0.918438
C     1.178535   -0.794578    0.115158    0.001956   -0.006040   -0.076211
N     0.000223   -1.430325    0.403603    0.022899   -0.069291   -0.839339
C    -1.131881   -0.713204    0.038214    0.001447   -0.004473   -0.056429
N    -0.991856    0.667252   -0.217549   -0.009698    0.029788    0.358173
C     0.195917    1.404236   -0.186813   -0.005045    0.015549    0.189573
O    -2.270387   -1.209002   -0.069544   -0.007494    0.023334    0.279821
O     0.155624    2.665240    0.005090    0.017585   -0.055202   -0.659121
H     2.072168   -1.420195    0.289576    0.009724   -0.029088   -0.355676
H    -1.857057    1.207330   -0.226401   -0.004447    0.015934    0.184863
H     2.357920    0.996169   -0.468030   -0.034334    0.103814    1.255074
11
* Frequency(7)  191.0221
C     1.364966    0.546729   -0.331191   -0.024756    0.075872    0.918438
C     1.178554   -0.794635    0.114433    0.001956   -0.006040   -0.076211
N     0.000441   -1.430985    0.395617    0.022899   -0.069291   -0.839339
C    -1.131867   -0.713247    0.037678    0.001447   -0.004473   -0.056429
N    -0.991948    0.667536   -0.214141   -0.009698    0.029788    0.358173
C     0.195869    1.404384   -0.185009   -0.005045    0.015549    0.189573
O    -2.270458   -1.208780   -0.066882   -0.007494    0.023334    0.279821
O     0.155792    2.664715   -0.001181    0.017585   -0.055202   -0.659121
H     2.072260   -1.420472    0.286192    0.009724   -0.029088   -0.355676
H    -1.857099    1.207481   -0.224642   -0.004447    0.015934    0.184863
H     2.357594    0.997156   -0.456089   -0.034334    0.103814    1.255074
11
* Frequency(7)  191.0221
C     1.363820    0.550241   -0.288684   -0.024756    0.075872    0.918438
C     1.178644   -0.794915    0.110906    0.001956   -0.006040   -0.076211
N     0.001500   -1.434191    0.356771    0.022899   -0.069291   -0.839339
C    -1.131800   -0.713454    0.035066    0.001447   -0.004473   -0.056429
N    -0.992397    0.668914   -0.197564   -0.009698    0.029788    0.358173
C     0.195636    1.405104   -0.176235   -0.005045    0.015549    0.189573
O    -2.270805   -1.207700   -0.053931   -0.007494    0.023334    0.279821
O     0.156606    2.662160   -0.031686    0.017585   -0.055202   -0.659121
H     2.072710   -1.421818    0.269730    0.009724   -0.029088   -0.355676
H    -1.857305    1.208219   -0.216087   -0.004447    0.015934    0.184863
H     2.356005    1.001961   -0.398002   -0.034334    0.103814    1.255074
11
* Frequency(7)  191.0221
C     1.361888    0.556161   -0.217014   -0.024756    0.075872    0.918438
C     1.178797   -0.795386    0.104959    0.001956   -0.006040   -0.076211
N     0.003287   -1.439598    0.291274    0.022899   -0.069291   -0.839339
C    -1.131687   -0.713803    0.030662    0.001447   -0.004473   -0.056429
N    -0.993153    0.671239   -0.169615   -0.009698    0.029788    0.358173
C     0.195242    1.406317   -0.161442   -0.005045    0.015549    0.189573
O    -2.271390   -1.205879   -0.032096   -0.007494    0.023334    0.279821
O     0.157978    2.657853   -0.083120    0.017585   -0.055202   -0.659121
H     2.073469   -1.424088    0.241976    0.009724   -0.029088   -0.355676
H    -1.857652    1.209462   -0.201661   -0.004447    0.015934    0.184863
H     2.353325    1.010062   -0.300063   -0.034334    0.103814    1.255074
11
* Frequency(7)  191.0221
C     1.359380    0.563849   -0.123949   -0.024756    0.075872    0.918438
C     1.178995   -0.795998    0.097236    0.001956   -0.006040   -0.076211
N     0.005608   -1.446620    0.206225    0.022899   -0.069291   -0.839339
C    -1.131540   -0.714256    0.024945    0.001447   -0.004473   -0.056429
N    -0.994136    0.674257   -0.133321   -0.009698    0.029788    0.358173
C     0.194731    1.407893   -0.142233   -0.005045    0.015549    0.189573
O    -2.272149   -1.203514   -0.003741   -0.007494    0.023334    0.279821
O     0.159760    2.652259   -0.149908    0.017585   -0.055202   -0.659121
H     2.074454   -1.427035    0.205935    0.009724   -0.029088   -0.355676
H    -1.858103    1.211077   -0.182929   -0.004447    0.015934    0.184863
H     2.349846    1.020581   -0.172887   -0.034334    0.103814    1.255074
11
* Frequency(7)  191.0221
C     1.356566    0.572472   -0.019574   -0.024756    0.075872    0.918438
C     1.179217   -0.796685    0.088575    0.001956   -0.006040   -0.076211
N     0.008210   -1.454494    0.110838    0.022899   -0.069291   -0.839339
C    -1.131376   -0.714764    0.018532    0.001447   -0.004473   -0.056429
N    -0.995238    0.677642   -0.092617   -0.009698    0.029788    0.358173
C     0.194158    1.409660   -0.120689   -0.005045    0.015549    0.189573
O    -2.273001   -1.200862    0.028059   -0.007494    0.023334    0.279821
O     0.161758    2.645985   -0.224814    0.017585   -0.055202   -0.659121
H     2.075560   -1.430341    0.165515    0.009724   -0.029088   -0.355676
H    -1.858608    1.212888   -0.161920   -0.004447    0.015934    0.184863
H     2.345944    1.032379   -0.030255   -0.034334    0.103814    1.255074
