11
* (null), Energy   -1000.0000000
C     1.589770    0.404289    0.010476    0.000000    0.000000    0.000000
C     1.411370   -0.965186    0.118323    0.000000    0.000000    0.000000
N     0.241399   -1.624530    0.140582    0.000000    0.000000    0.000000
C    -0.900298   -0.884733    0.048827    0.000000    0.000000    0.000000
N    -0.762264    0.508959   -0.063346    0.000000    0.000000    0.000000
C     0.427306    1.242907   -0.091179    0.000000    0.000000    0.000000
O    -2.041444   -1.368814    0.058335    0.000000    0.000000    0.000000
O     0.393949    2.478247   -0.194845    0.000000    0.000000    0.000000
H     2.308617   -1.598423    0.195226    0.000000    0.000000    0.000000
H    -1.625843    1.043584   -0.132009    0.000000    0.000000    0.000000
H     2.579572    0.863274    0.000136    0.000000    0.000000    0.000000
11
* Frequency(2)    0.0000
C     1.589770    0.404289    0.010476    0.000000    0.000000    0.000000
C     1.411370   -0.965186    0.118323    0.000000    0.000000    0.000000
N     0.241399   -1.624530    0.140582    0.000000    0.000000    0.000000
C    -0.900298   -0.884733    0.048827    0.000000    0.000000    0.000000
N    -0.762264    0.508959   -0.063346    0.000000    0.000000    0.000000
C     0.427306    1.242907   -0.091179    0.000000    0.000000    0.000000
O    -2.041444   -1.368814    0.058335    0.000000    0.000000    0.000000
O     0.393949    2.478247   -0.194845    0.000000    0.000000    0.000000
H     2.308617   -1.598423    0.195226    0.000000    0.000000    0.000000
H    -1.625843    1.043584   -0.132009    0.000000    0.000000    0.000000
H     2.579572    0.863274    0.000136    0.000000    0.000000    0.000000
11
* Frequency(2)    0.0000
C     1.589770    0.404289    0.010476    0.000000    0.000000    0.000000
C     1.411370   -0.965186    0.118323    0.000000    0.000000    0.000000
N     0.241399   -1.624530    0.140582    0.000000    0.000000    0.000000
C    -0.900298   -0.884733    0.048827    0.000000    0.000000    0.000000
N    -0.762264    0.508959   -0.063346    0.000000    0.000000    0.000000
C     0.427306    1.242907   -0.091179    0.000000    0.000000    0.000000
O    -2.041444   -1.368814    0.058335    0.000000    0.000000    0.000000
O     0.393949    2.478247   -0.194845    0.000000    0.000000    0.000000
H     2.308617   -1.598423    0.195226    0.000000    0.000000    0.000000
H    -1.625843    1.043584   -0.132009    0.000000    0.000000    0.000000
H     2.579572    0.863274    0.000136    0.000000    0.000000    0.000000
11
* Frequency(2)    0.0000
C     1.589770    0.404289    0.010476    0.000000    0.000000    0.000000
C     1.411370   -0.965186    0.118323    0.000000    0.000000    0.000000
N     0.241399   -1.624530    0.140582    0.000000    0.000000    0.000000
C    -0.900298   -0.884733    0.048827    0.000000    0.000000    0.000000
N    -0.762264    0.508959   -0.063346    0.000000    0.000000    0.000000
C     0.427306    1.242907   -0.091179    0.000000    0.000000    0.000000
O    -2.041444   -1.368814    0.058335    0.000000    0.000000    0.000000
O     0.393949    2.478247   -0.194845    0.000000    0.000000    0.000000
H     2.308617   -1.598423    0.195226    0.000000    0.000000    0.000000
H    -1.625843    1.043584   -0.132009    0.000000    0.000000    0.000000
H     2.579572    0.863274    0.000136    0.000000    0.000000    0.000000
11
* Frequency(2)    0.0000
C     1.589770    0.404289    0.010476    0.000000    0.000000    0.000000
C     1.411370   -0.965186    0.118323    0.000000    0.000000    0.000000
N     0.241399   -1.624530    0.140582    0.000000    0.000000    0.000000
C    -0.900298   -0.884733    0.048827    0.000000    0.000000    0.000000
N    -0.762264    0.508959   -0.063346    0.000000    0.000000    0.000000
C     0.427306    1.242907   -0.091179    0.000000    0.000000    0.000000
O    -2.041444   -1.368814    0.058335    0.000000    0.000000    0.000000
O     0.393949    2.478247   -0.194845    0.000000    0.000000    0.000000
H     2.308617   -1.598423    0.195226    0.000000    0.000000    0.000000
H    -1.625843    1.043584   -0.132009    0.000000    0.000000    0.000000
H     2.579572    0.863274    0.000136    0.000000    0.000000    0.000000
11
* Frequency(2)    0.0000
C     1.589770    0.404289    0.010476    0.000000    0.000000    0.000000
C     1.411370   -0.965186    0.118323    0.000000    0.000000    0.000000
N     0.241399   -1.624530    0.140582    0.000000    0.000000    0.000000
C    -0.900298   -0.884733    0.048827    0.000000    0.000000    0.000000
N    -0.762264    0.508959   -0.063346    0.000000    0.000000    0.000000
C     0.427306    1.242907   -0.091179    0.000000    0.000000    0.000000
O    -2.041444   -1.368814    0.058335    0.000000    0.000000    0.000000
O     0.393949    2.478247   -0.194845    0.000000    0.000000    0.000000
H     2.308617   -1.598423    0.195226    0.000000    0.000000    0.000000
H    -1.625843    1.043584   -0.132009    0.000000    0.000000    0.000000
H     2.579572    0.863274    0.000136    0.000000    0.000000    0.000000
11
* Frequency(2)    0.0000
C     1.589770    0.404289    0.010476    0.000000    0.000000    0.000000
C     1.411370   -0.965186    0.118323    0.000000    0.000000    0.000000
N     0.241399   -1.624530    0.140582    0.000000    0.000000    0.000000
C    -0.900298   -0.884733    0.048827    0.000000    0.000000    0.000000
N    -0.762264    0.508959   -0.063346    0.000000    0.000000    0.000000
C     0.427306    1.242907   -0.091179    0.000000    0.000000    0.000000
O    -2.041444   -1.368814    0.058335    0.000000    0.000000    0.000000
O     0.393949    2.478247   -0.194845    0.000000    0.000000    0.000000
H     2.308617   -1.598423    0.195226    0.000000    0.000000    0.000000
H    -1.625843    1.043584   -0.132009    0.000000    0.000000    0.000000
H     2.579572    0.863274    0.000136    0.000000    0.000000    0.000000
11
* Frequency(2)    0.0000
C     1.589770    0.404289    0.010476    0.000000    0.000000    0.000000
C     1.411370   -0.965186    0.118323    0.000000    0.000000    0.000000
N     0.241399   -1.624530    0.140582    0.000000    0.000000    0.000000
C    -0.900298   -0.884733    0.048827    0.000000    0.000000    0.000000
N    -0.762264    0.508959   -0.063346    0.000000    0.000000    0.000000
C     0.427306    1.242907   -0.091179    0.000000    0.000000    0.000000
O    -2.041444   -1.368814    0.058335    0.000000    0.000000    0.000000
O     0.393949    2.478247   -0.194845    0.000000    0.000000    0.000000
H     2.308617   -1.598423    0.195226    0.000000    0.000000    0.000000
H    -1.625843    1.043584   -0.132009    0.000000    0.000000    0.000000
H     2.579572    0.863274    0.000136    0.000000    0.000000    0.000000
11
* Frequency(2)    0.0000
C     1.589770    0.404289    0.010476    0.000000    0.000000    0.000000
C     1.411370   -0.965186    0.118323    0.000000    0.000000    0.000000
N     0.241399   -1.624530    0.140582    0.000000    0.000000    0.000000
C    -0.900298   -0.884733    0.048827    0.000000    0.000000    0.000000
N    -0.762264    0.508959   -0.063346    0.000000    0.000000    0.000000
C     0.427306    1.242907   -0.091179    0.000000    0.000000    0.000000
O    -2.041444   -1.368814    0.058335    0.000000    0.000000    0.000000
O     0.393949    2.478247   -0.194845    0.000000    0.000000    0.000000
H     2.308617   -1.598423    0.195226    0.000000    0.000000    0.000000
H    -1.625843    1.043584   -0.132009    0.000000    0.000000    0.000000
H     2.579572    0.863274    0.000136    0.000000    0.000000    0.000000
11
* Frequency(2)    0.0000
C     1.589770    0.404289    0.010476    0.000000    0.000000    0.000000
C     1.411370   -0.965186    0.118323    0.000000    0.000000    0.000000
N     0.241399   -1.624530    0.140582    0.000000    0.000000    0.000000
C    -0.900298   -0.884733    0.048827    0.000000    0.000000    0.000000
N    -0.762264    0.508959   -0.063346    0.000000    0.000000    0.000000
C     0.427306    1.242907   -0.091179    0.000000    0.000000    0.000000
O    -2.041444   -1.368814    0.058335    0.000000    0.000000    0.000000
O     0.393949    2.478247   -0.194845    0.000000    0.000000    0.000000
H     2.308617   -1.598423    0.195226    0.000000    0.000000    0.000000
H    -1.625843    1.043584   -0.132009    0.000000    0.000000    0.000000
H     2.579572    0.863274    0.000136    0.000000    0.000000    0.000000
11
* Frequency(2)    0.0000
C     1.589770    0.404289    0.010476    0.000000    0.000000    0.000000
C     1.411370   -0.965186    0.118323    0.000000    0.000000    0.000000
N     0.241399   -1.624530    0.140582    0.000000    0.000000    0.000000
C    -0.900298   -0.884733    0.048827    0.000000    0.000000    0.000000
N    -0.762264    0.508959   -0.063346    0.000000    0.000000    0.000000
C     0.427306    1.242907   -0.091179    0.000000    0.000000    0.000000
O    -2.041444   -1.368814    0.058335    0.000000    0.000000    0.000000
O     0.393949    2.478247   -0.194845    0.000000    0.000000    0.000000
H     2.308617   -1.598423    0.195226    0.000000    0.000000    0.000000
H    -1.625843    1.043584   -0.132009    0.000000    0.000000    0.000000
H     2.579572    0.863274    0.000136    0.000000    0.000000    0.000000
11
* Frequency(2)    0.0000
C     1.589770    0.404289    0.010476    0.000000    0.000000    0.000000
C     1.411370   -0.965186    0.118323    0.000000    0.000000    0.000000
N     0.241399   -1.624530    0.140582    0.000000    0.000000    0.000000
C    -0.900298   -0.884733    0.048827    0.000000    0.000000    0.000000
N    -0.762264    0.508959   -0.063346    0.000000    0.000000    0.000000
C     0.427306    1.242907   -0.091179    0.000000    0.000000    0.000000
O    -2.041444   -1.368814    0.058335    0.000000    0.000000    0.000000
O     0.393949    2.478247   -0.194845    0.000000    0.000000    0.000000
H     2.308617   -1.598423    0.195226    0.000000    0.000000    0.000000
H    -1.625843    1.043584   -0.132009    0.000000    0.000000    0.000000
H     2.579572    0.863274    0.000136    0.000000    0.000000    0.000000
11
* Frequency(2)    0.0000
C     1.589770    0.404289    0.010476    0.000000    0.000000    0.000000
C     1.411370   -0.965186    0.118323    0.000000    0.000000    0.000000
N     0.241399   -1.624530    0.140582    0.000000    0.000000    0.000000
C    -0.900298   -0.884733    0.048827    0.000000    0.000000    0.000000
N    -0.762264    0.508959   -0.063346    0.000000    0.000000    0.000000
C     0.427306    1.242907   -0.091179    0.000000    0.000000    0.000000
O    -2.041444   -1.368814    0.058335    0.000000    0.000000    0.000000
O     0.393949    2.478247   -0.194845    0.000000    0.000000    0.000000
H     2.308617   -1.598423    0.195226    0.000000    0.000000    0.000000
H    -1.625843    1.043584   -0.132009    0.000000    0.000000    0.000000
H     2.579572    0.863274    0.000136    0.000000    0.000000    0.000000
11
* Frequency(2)    0.0000
C     1.589770    0.404289    0.010476    0.000000    0.000000    0.000000
C     1.411370   -0.965186    0.118323    0.000000    0.000000    0.000000
N     0.241399   -1.624530    0.140582    0.000000    0.000000    0.000000
C    -0.900298   -0.884733    0.048827    0.000000    0.000000    0.000000
N    -0.762264    0.508959   -0.063346    0.000000    0.000000    0.000000
C     0.427306    1.242907   -0.091179    0.000000    0.000000    0.000000
O    -2.041444   -1.368814    0.058335    0.000000    0.000000    0.000000
O     0.393949    2.478247   -0.194845    0.000000    0.000000    0.000000
H     2.308617   -1.598423    0.195226    0.000000    0.000000    0.000000
H    -1.625843    1.043584   -0.132009    0.000000    0.000000    0.000000
H     2.579572    0.863274    0.000136    0.000000    0.000000    0.000000
11
* Frequency(2)    0.0000
C     1.589770    0.404289    0.010476    0.000000    0.000000    0.000000
C     1.411370   -0.965186    0.118323    0.000000    0.000000    0.000000
N     0.241399   -1.624530    0.140582    0.000000    0.000000    0.000000
C    -0.900298   -0.884733    0.048827    0.000000    0.000000    0.000000
N    -0.762264    0.508959   -0.063346    0.000000    0.000000    0.000000
C     0.427306    1.242907   -0.091179    0.000000    0.000000    0.000000
O    -2.041444   -1.368814    0.058335    0.000000    0.000000    0.000000
O     0.393949    2.478247   -0.194845    0.000000    0.000000    0.000000
H     2.308617   -1.598423    0.195226    0.000000    0.000000    0.000000
H    -1.625843    1.043584   -0.132009    0.000000    0.000000    0.000000
H     2.579572    0.863274    0.000136    0.000000    0.000000    0.000000
11
* Frequency(2)    0.0000
C     1.589770    0.404289    0.010476    0.000000    0.000000    0.000000
C     1.411370   -0.965186    0.118323    0.000000    0.000000    0.000000
N     0.241399   -1.624530    0.140582    0.000000    0.000000    0.000000
C    -0.900298   -0.884733    0.048827    0.000000    0.000000    0.000000
N    -0.762264    0.508959   -0.063346    0.000000    0.000000    0.000000
C     0.427306    1.242907   -0.091179    0.000000    0.000000    0.000000
O    -2.041444   -1.368814    0.058335    0.000000    0.000000    0.000000
O     0.393949    2.478247   -0.194845    0.000000    0.000000    0.000000
H     2.308617   -1.598423    0.195226    0.000000    0.000000    0.000000
H    -1.625843    1.043584   -0.132009    0.000000    0.000000    0.000000
H     2.579572    0.863274    0.000136    0.000000    0.000000    0.000000
11
* Frequency(2)    0.0000
C     1.589770    0.404289    0.010476    0.000000    0.000000    0.000000
C     1.411370   -0.965186    0.118323    0.000000    0.000000    0.000000
N     0.241399   -1.624530    0.140582    0.000000    0.000000    0.000000
C    -0.900298   -0.884733    0.048827    0.000000    0.000000    0.000000
N    -0.762264    0.508959   -0.063346    0.000000    0.000000    0.000000
C     0.427306    1.242907   -0.091179    0.000000    0.000000    0.000000
O    -2.041444   -1.368814    0.058335    0.000000    0.000000    0.000000
O     0.393949    2.478247   -0.194845    0.000000    0.000000    0.000000
H     2.308617   -1.598423    0.195226    0.000000    0.000000    0.000000
H    -1.625843    1.043584   -0.132009    0.000000    0.000000    0.000000
H     2.579572    0.863274    0.000136    0.000000    0.000000    0.000000
11
* Frequency(2)    0.0000
C     1.589770    0.404289    0.010476    0.000000    0.000000    0.000000
C     1.411370   -0.965186    0.118323    0.000000    0.000000    0.000000
N     0.241399   -1.624530    0.140582    0.000000    0.000000    0.000000
C    -0.900298   -0.884733    0.048827    0.000000    0.000000    0.000000
N    -0.762264    0.508959   -0.063346    0.000000    0.000000    0.000000
C     0.427306    1.242907   -0.091179    0.000000    0.000000    0.000000
O    -2.041444   -1.368814    0.058335    0.000000    0.000000    0.000000
O     0.393949    2.478247   -0.194845    0.000000    0.000000    0.000000
H     2.308617   -1.598423    0.195226    0.000000    0.000000    0.000000
H    -1.625843    1.043584   -0.132009    0.000000    0.000000    0.000000
H     2.579572    0.863274    0.000136    0.000000    0.000000    0.000000
11
* Frequency(2)    0.0000
C     1.589770    0.404289    0.010476    0.000000    0.000000    0.000000
C     1.411370   -0.965186    0.118323    0.000000    0.000000    0.000000
N     0.241399   -1.624530    0.140582    0.000000    0.000000    0.000000
C    -0.900298   -0.884733    0.048827    0.000000    0.000000    0.000000
N    -0.762264    0.508959   -0.063346    0.000000    0.000000    0.000000
C     0.427306    1.242907   -0.091179    0.000000    0.000000    0.000000
O    -2.041444   -1.368814    0.058335    0.000000    0.000000    0.000000
O     0.393949    2.478247   -0.194845    0.000000    0.000000    0.000000
H     2.308617   -1.598423    0.195226    0.000000    0.000000    0.000000
H    -1.625843    1.043584   -0.132009    0.000000    0.000000    0.000000
H     2.579572    0.863274    0.000136    0.000000    0.000000    0.000000
11
* Frequency(2)    0.0000
C     1.589770    0.404289    0.010476    0.000000    0.000000    0.000000
C     1.411370   -0.965186    0.118323    0.000000    0.000000    0.000000
N     0.241399   -1.624530    0.140582    0.000000    0.000000    0.000000
C    -0.900298   -0.884733    0.048827    0.000000    0.000000    0.000000
N    -0.762264    0.508959   -0.063346    0.000000    0.000000    0.000000
C     0.427306    1.242907   -0.091179    0.000000    0.000000    0.000000
O    -2.041444   -1.368814    0.058335    0.000000    0.000000    0.000000
O     0.393949    2.478247   -0.194845    0.000000    0.000000    0.000000
H     2.308617   -1.598423    0.195226    0.000000    0.000000    0.000000
H    -1.625843    1.043584   -0.132009    0.000000    0.000000    0.000000
H     2.579572    0.863274    0.000136    0.000000    0.000000    0.000000
