11
* (null), Energy   -1000.0000000
C     1.589770    0.404289    0.010476    0.310828   -0.287747    0.053325
C     1.411370   -0.965186    0.118323    0.910638   -0.564822    0.073864
N     0.241399   -1.624530    0.140582    0.332656   -0.018354    0.009214
C    -0.900298   -0.884733    0.048827   -0.282611   -0.220530    0.009973
N    -0.762264    0.508959   -0.063346   -0.380772    0.210185   -0.020171
C     0.427306    1.242907   -0.091179   -0.057005    0.323476   -0.062847
O    -2.041444   -1.368814    0.058335   -0.565742   -0.074860   -0.008810
O     0.393949    2.478247   -0.194845   -0.087870    0.508640   -0.034618
H     2.308617   -1.598423    0.195226    0.766154   -0.818042    0.066406
H    -1.625843    1.043584   -0.132009   -0.436050    0.170935   -0.036348
H     2.579572    0.863274    0.000136    0.204812    0.028762   -0.074043
11
* Frequency(16)  803.8560
C     1.625094    0.371588    0.016536    0.310828   -0.287747    0.053325
C     1.514860   -1.029375    0.126717    0.910638   -0.564822    0.073864
N     0.279204   -1.626616    0.141629    0.332656   -0.018354    0.009214
C    -0.932415   -0.909796    0.049960   -0.282611   -0.220530    0.009973
N    -0.805537    0.532845   -0.065638   -0.380772    0.210185   -0.020171
C     0.420827    1.279668   -0.098321   -0.057005    0.323476   -0.062847
O    -2.105737   -1.377321    0.057334   -0.565742   -0.074860   -0.008810
O     0.383963    2.536051   -0.198779   -0.087870    0.508640   -0.034618
H     2.395687   -1.691389    0.202773    0.766154   -0.818042    0.066406
H    -1.675398    1.063010   -0.136140   -0.436050    0.170935   -0.036348
H     2.602848    0.866543   -0.008278    0.204812    0.028762   -0.074043
11
* Frequency(16)  803.8560
C     1.656590    0.342430    0.021939    0.310828   -0.287747    0.053325
C     1.607134   -1.086609    0.134202    0.910638   -0.564822    0.073864
N     0.312911   -1.628475    0.142563    0.332656   -0.018354    0.009214
C    -0.961052   -0.932142    0.050971   -0.282611   -0.220530    0.009973
N    -0.844121    0.554143   -0.067682   -0.380772    0.210185   -0.020171
C     0.415051    1.312446   -0.104689   -0.057005    0.323476   -0.062847
O    -2.163064   -1.384907    0.056441   -0.565742   -0.074860   -0.008810
O     0.375059    2.587591   -0.202287   -0.087870    0.508640   -0.034618
H     2.473321   -1.774281    0.209502    0.766154   -0.818042    0.066406
H    -1.719583    1.080331   -0.139823   -0.436050    0.170935   -0.036348
H     2.623602    0.869457   -0.015781    0.204812    0.028762   -0.074043
11
* Frequency(16)  803.8560
C     1.680845    0.319976    0.026101    0.310828   -0.287747    0.053325
C     1.678195   -1.130684    0.139966    0.910638   -0.564822    0.073864
N     0.338870   -1.629908    0.143282    0.332656   -0.018354    0.009214
C    -0.983105   -0.949351    0.051749   -0.282611   -0.220530    0.009973
N    -0.873834    0.570545   -0.069256   -0.380772    0.210185   -0.020171
C     0.410603    1.337688   -0.109593   -0.057005    0.323476   -0.062847
O    -2.207211   -1.390748    0.055754   -0.565742   -0.074860   -0.008810
O     0.368202    2.627282   -0.204988   -0.087870    0.508640   -0.034618
H     2.533107   -1.838116    0.214683    0.766154   -0.818042    0.066406
H    -1.753609    1.093670   -0.142660   -0.436050    0.170935   -0.036348
H     2.639584    0.871702   -0.021559    0.204812    0.028762   -0.074043
11
* Frequency(16)  803.8560
C     1.695231    0.306659    0.028569    0.310828   -0.287747    0.053325
C     1.720341   -1.156825    0.143384    0.910638   -0.564822    0.073864
N     0.354266   -1.630757    0.143708    0.332656   -0.018354    0.009214
C    -0.996185   -0.959557    0.052211   -0.282611   -0.220530    0.009973
N    -0.891457    0.580273   -0.070190   -0.380772    0.210185   -0.020171
C     0.407965    1.352659   -0.112502   -0.057005    0.323476   -0.062847
O    -2.233394   -1.394213    0.055346   -0.565742   -0.074860   -0.008810
O     0.364135    2.650823   -0.206590   -0.087870    0.508640   -0.034618
H     2.568566   -1.875976    0.217757    0.766154   -0.818042    0.066406
H    -1.773791    1.101581   -0.144342   -0.436050    0.170935   -0.036348
H     2.649063    0.873033   -0.024986    0.204812    0.028762   -0.074043
11
* Frequency(16)  803.8560
C     1.698188    0.303921    0.029076    0.310828   -0.287747    0.053325
C     1.729005   -1.162199    0.144087    0.910638   -0.564822    0.073864
N     0.357431   -1.630932    0.143796    0.332656   -0.018354    0.009214
C    -0.998874   -0.961656    0.052305   -0.282611   -0.220530    0.009973
N    -0.895079    0.582272   -0.070382   -0.380772    0.210185   -0.020171
C     0.407422    1.355737   -0.113100   -0.057005    0.323476   -0.062847
O    -2.238777   -1.394925    0.055262   -0.565742   -0.074860   -0.008810
O     0.363299    2.655663   -0.206920   -0.087870    0.508640   -0.034618
H     2.575855   -1.883759    0.218389    0.766154   -0.818042    0.066406
H    -1.777939    1.103207   -0.144688   -0.436050    0.170935   -0.036348
H     2.651012    0.873307   -0.025690    0.204812    0.028762   -0.074043
11
* Frequency(16)  803.8560
C     1.689397    0.312060    0.027568    0.310828   -0.287747    0.053325
C     1.703249   -1.146223    0.141998    0.910638   -0.564822    0.073864
N     0.348022   -1.630413    0.143536    0.332656   -0.018354    0.009214
C    -0.990881   -0.955418    0.052023   -0.282611   -0.220530    0.009973
N    -0.884310    0.576327   -0.069811   -0.380772    0.210185   -0.020171
C     0.409035    1.346588   -0.111322   -0.057005    0.323476   -0.062847
O    -2.222776   -1.392808    0.055511   -0.565742   -0.074860   -0.008810
O     0.365784    2.641276   -0.205941   -0.087870    0.508640   -0.034618
H     2.554185   -1.860622    0.216510    0.766154   -0.818042    0.066406
H    -1.765606    1.098373   -0.143660   -0.436050    0.170935   -0.036348
H     2.645219    0.872493   -0.023596    0.204812    0.028762   -0.074043
11
* Frequency(16)  803.8560
C     1.669809    0.330193    0.024207    0.310828   -0.287747    0.053325
C     1.645863   -1.110630    0.137343    0.910638   -0.564822    0.073864
N     0.327059   -1.629256    0.142955    0.332656   -0.018354    0.009214
C    -0.973071   -0.941521    0.051395   -0.282611   -0.220530    0.009973
N    -0.860315    0.563082   -0.068540   -0.380772    0.210185   -0.020171
C     0.412627    1.326203   -0.107362   -0.057005    0.323476   -0.062847
O    -2.187124   -1.388091    0.056067   -0.565742   -0.074860   -0.008810
O     0.371322    2.609223   -0.203759   -0.087870    0.508640   -0.034618
H     2.505904   -1.809071    0.212326    0.766154   -0.818042    0.066406
H    -1.738127    1.087601   -0.141369   -0.436050    0.170935   -0.036348
H     2.632312    0.870681   -0.018930    0.204812    0.028762   -0.074043
11
* Frequency(16)  803.8560
C     1.641548    0.356355    0.019359    0.310828   -0.287747    0.053325
C     1.563066   -1.059275    0.130627    0.910638   -0.564822    0.073864
N     0.296813   -1.627587    0.142117    0.332656   -0.018354    0.009214
C    -0.947376   -0.921470    0.050488   -0.282611   -0.220530    0.009973
N    -0.825694    0.543972   -0.066706   -0.380772    0.210185   -0.020171
C     0.417810    1.296792   -0.101648   -0.057005    0.323476   -0.062847
O    -2.135686   -1.381284    0.056868   -0.565742   -0.074860   -0.008810
O     0.379311    2.562977   -0.200611   -0.087870    0.508640   -0.034618
H     2.436244   -1.734693    0.206288    0.766154   -0.818042    0.066406
H    -1.698481    1.072059   -0.138064   -0.436050    0.170935   -0.036348
H     2.613690    0.868065   -0.012198    0.204812    0.028762   -0.074043
11
* Frequency(16)  803.8560
C     1.607676    0.387712    0.013548    0.310828   -0.287747    0.053325
C     1.463831   -0.997725    0.122578    0.910638   -0.564822    0.073864
N     0.260563   -1.625587    0.141113    0.332656   -0.018354    0.009214
C    -0.916579   -0.897438    0.049401   -0.282611   -0.220530    0.009973
N    -0.784200    0.521067   -0.064508   -0.380772    0.210185   -0.020171
C     0.424022    1.261542   -0.094799   -0.057005    0.323476   -0.062847
O    -2.074035   -1.373126    0.057828   -0.565742   -0.074860   -0.008810
O     0.388887    2.507549   -0.196839   -0.087870    0.508640   -0.034618
H     2.352754   -1.645548    0.199051    0.766154   -0.818042    0.066406
H    -1.650963    1.053432   -0.134103   -0.436050    0.170935   -0.036348
H     2.591371    0.864931   -0.004129    0.204812    0.028762   -0.074043
11
* Frequency(16)  803.8560
C     1.571864    0.420865    0.007404    0.310828   -0.287747    0.053325
C     1.358910   -0.932648    0.114068    0.910638   -0.564822    0.073864
N     0.222235   -1.623472    0.140051    0.332656   -0.018354    0.009214
C    -0.884017   -0.872029    0.048252   -0.282611   -0.220530    0.009973
N    -0.740329    0.496850   -0.062184   -0.380772    0.210185   -0.020171
C     0.430590    1.224272   -0.087558   -0.057005    0.323476   -0.062847
O    -2.008852   -1.364501    0.058843   -0.565742   -0.074860   -0.008810
O     0.399011    2.448945   -0.192850   -0.087870    0.508640   -0.034618
H     2.264481   -1.551297    0.191400    0.766154   -0.818042    0.066406
H    -1.600723    1.033737   -0.129916   -0.436050    0.170935   -0.036348
H     2.567774    0.861617    0.004402    0.204812    0.028762   -0.074043
11
* Frequency(16)  803.8560
C     1.537992    0.452222    0.001593    0.310828   -0.287747    0.053325
C     1.259675   -0.871098    0.106018    0.910638   -0.564822    0.073864
N     0.185985   -1.621472    0.139047    0.332656   -0.018354    0.009214
C    -0.853220   -0.847997    0.047166   -0.282611   -0.220530    0.009973
N    -0.698835    0.473946   -0.059986   -0.380772    0.210185   -0.020171
C     0.436802    1.189022   -0.080710   -0.057005    0.323476   -0.062847
O    -1.947201   -1.356343    0.059803   -0.565742   -0.074860   -0.008810
O     0.408586    2.393517   -0.189078   -0.087870    0.508640   -0.034618
H     2.180990   -1.462152    0.184164    0.766154   -0.818042    0.066406
H    -1.553205    1.015110   -0.125955   -0.436050    0.170935   -0.036348
H     2.545454    0.858483    0.012471    0.204812    0.028762   -0.074043
11
* Frequency(16)  803.8560
C     1.509731    0.478385   -0.003256    0.310828   -0.287747    0.053325
C     1.176878   -0.819743    0.099303    0.910638   -0.564822    0.073864
N     0.155739   -1.619803    0.138210    0.332656   -0.018354    0.009214
C    -0.827525   -0.827946    0.046259   -0.282611   -0.220530    0.009973
N    -0.664214    0.454835   -0.058152   -0.380772    0.210185   -0.020171
C     0.441985    1.159611   -0.074995   -0.057005    0.323476   -0.062847
O    -1.895763   -1.349537    0.060603   -0.565742   -0.074860   -0.008810
O     0.416575    2.347270   -0.185930   -0.087870    0.508640   -0.034618
H     2.111330   -1.387774    0.178126    0.766154   -0.818042    0.066406
H    -1.513559    0.999568   -0.122650   -0.436050    0.170935   -0.036348
H     2.526833    0.855868    0.019203    0.204812    0.028762   -0.074043
11
* Frequency(16)  803.8560
C     1.490143    0.496518   -0.006616    0.310828   -0.287747    0.053325
C     1.119492   -0.784149    0.094648    0.910638   -0.564822    0.073864
N     0.134776   -1.618647    0.137629    0.332656   -0.018354    0.009214
C    -0.809715   -0.814049    0.045630   -0.282611   -0.220530    0.009973
N    -0.640219    0.441590   -0.056881   -0.380772    0.210185   -0.020171
C     0.445577    1.139226   -0.071035   -0.057005    0.323476   -0.062847
O    -1.860112   -1.344820    0.061159   -0.565742   -0.074860   -0.008810
O     0.422113    2.315217   -0.183749   -0.087870    0.508640   -0.034618
H     2.063049   -1.336223    0.173941    0.766154   -0.818042    0.066406
H    -1.486080    0.988796   -0.120359   -0.436050    0.170935   -0.036348
H     2.513926    0.854055    0.023869    0.204812    0.028762   -0.074043
11
* Frequency(16)  803.8560
C     1.481352    0.504656   -0.008124    0.310828   -0.287747    0.053325
C     1.093736   -0.768174    0.092559    0.910638   -0.564822    0.073864
N     0.125367   -1.618128    0.137368    0.332656   -0.018354    0.009214
C    -0.801722   -0.807811    0.045348   -0.282611   -0.220530    0.009973
N    -0.629449    0.435645   -0.056311   -0.380772    0.210185   -0.020171
C     0.447189    1.130077   -0.069257   -0.057005    0.323476   -0.062847
O    -1.844110   -1.342702    0.061408   -0.565742   -0.074860   -0.008810
O     0.424598    2.300831   -0.182770   -0.087870    0.508640   -0.034618
H     2.041379   -1.313086    0.172063    0.766154   -0.818042    0.066406
H    -1.473747    0.983962   -0.119331   -0.436050    0.170935   -0.036348
H     2.508133    0.853242    0.025963    0.204812    0.028762   -0.074043
11
* Frequency(16)  803.8560
C     1.484309    0.501918   -0.007617    0.310828   -0.287747    0.053325
C     1.102400   -0.773548    0.093262    0.910638   -0.564822    0.073864
N     0.128532   -1.618302    0.137456    0.332656   -0.018354    0.009214
C    -0.804411   -0.809910    0.045443   -0.282611   -0.220530    0.009973
N    -0.633072    0.437645   -0.056502   -0.380772    0.210185   -0.020171
C     0.446647    1.133155   -0.069855   -0.057005    0.323476   -0.062847
O    -1.849493   -1.343414    0.061324   -0.565742   -0.074860   -0.008810
O     0.423762    2.305670   -0.183099   -0.087870    0.508640   -0.034618
H     2.048669   -1.320869    0.172695    0.766154   -0.818042    0.066406
H    -1.477896    0.985588   -0.119677   -0.436050    0.170935   -0.036348
H     2.510082    0.853515    0.025258    0.204812    0.028762   -0.074043
11
* Frequency(16)  803.8560
C     1.498695    0.488601   -0.005149    0.310828   -0.287747    0.053325
C     1.144546   -0.799689    0.096680    0.910638   -0.564822    0.073864
N     0.143928   -1.619152    0.137883    0.332656   -0.018354    0.009214
C    -0.817491   -0.820116    0.045905   -0.282611   -0.220530    0.009973
N    -0.650695    0.447373   -0.057436   -0.380772    0.210185   -0.020171
C     0.444009    1.148126   -0.072764   -0.057005    0.323476   -0.062847
O    -1.875677   -1.346879    0.060916   -0.565742   -0.074860   -0.008810
O     0.419695    2.329211   -0.184701   -0.087870    0.508640   -0.034618
H     2.084128   -1.358730    0.175768    0.766154   -0.818042    0.066406
H    -1.498077    0.993499   -0.121359   -0.436050    0.170935   -0.036348
H     2.519561    0.854847    0.021832    0.204812    0.028762   -0.074043
11
* Frequency(16)  803.8560
C     1.522950    0.466147   -0.000988    0.310828   -0.287747    0.053325
C     1.215606   -0.843764    0.102444    0.910638   -0.564822    0.073864
N     0.169886   -1.620584    0.138602    0.332656   -0.018354    0.009214
C    -0.839544   -0.837325    0.046683   -0.282611   -0.220530    0.009973
N    -0.680408    0.463774   -0.059010   -0.380772    0.210185   -0.020171
C     0.439560    1.173368   -0.077668   -0.057005    0.323476   -0.062847
O    -1.919824   -1.352721    0.060229   -0.565742   -0.074860   -0.008810
O     0.412838    2.368902   -0.187403   -0.087870    0.508640   -0.034618
H     2.143914   -1.422565    0.180950    0.766154   -0.818042    0.066406
H    -1.532103    1.006838   -0.124196   -0.436050    0.170935   -0.036348
H     2.535543    0.857091    0.016054    0.204812    0.028762   -0.074043
11
* Frequency(16)  803.8560
C     1.554446    0.436990    0.004416    0.310828   -0.287747    0.053325
C     1.307881   -0.900997    0.109929    0.910638   -0.564822    0.073864
N     0.203594   -1.622444    0.139535    0.332656   -0.018354    0.009214
C    -0.868181   -0.859671    0.047693   -0.282611   -0.220530    0.009973
N    -0.718992    0.485072   -0.061054   -0.380772    0.210185   -0.020171
C     0.433784    1.206146   -0.084036   -0.057005    0.323476   -0.062847
O    -1.977150   -1.360306    0.059336   -0.565742   -0.074860   -0.008810
O     0.403935    2.420442   -0.190911   -0.087870    0.508640   -0.034618
H     2.221548   -1.505456    0.187679    0.766154   -0.818042    0.066406
H    -1.576288    1.024159   -0.127879   -0.436050    0.170935   -0.036348
H     2.556297    0.860005    0.008551    0.204812    0.028762   -0.074043
11
* Frequency(16)  803.8560
C     1.589770    0.404289    0.010476    0.310828   -0.287747    0.053325
C     1.411370   -0.965186    0.118323    0.910638   -0.564822    0.073864
N     0.241399   -1.624530    0.140582    0.332656   -0.018354    0.009214
C    -0.900298   -0.884733    0.048827   -0.282611   -0.220530    0.009973
N    -0.762264    0.508959   -0.063346   -0.380772    0.210185   -0.020171
C     0.427306    1.242907   -0.091179   -0.057005    0.323476   -0.062847
O    -2.041444   -1.368814    0.058335   -0.565742   -0.074860   -0.008810
O     0.393949    2.478247   -0.194845   -0.087870    0.508640   -0.034618
H     2.308617   -1.598423    0.195226    0.766154   -0.818042    0.066406
H    -1.625843    1.043584   -0.132009   -0.436050    0.170935   -0.036348
H     2.579572    0.863274    0.000136    0.204812    0.028762   -0.074043
