11
Coordinates from ORCA-job Uracil_m1 E -413.815615833809
  C       1.338780      0.515080     -0.017080
  C       1.245260     -0.812400      0.092680
  N      -0.024150     -1.419660      0.116200
  C      -1.172370     -0.617430      0.008880
  N      -1.056250      0.719790     -0.106360
  C       0.138810      1.364060     -0.117600
  O      -2.193050     -1.270750      0.037880
  O       0.235340      2.577570     -0.204660
  H       2.150690     -1.416360      0.164630
  H      -1.894310      1.283150     -0.175340
  H       2.294440      1.030830     -0.037580
11
Coordinates from ORCA-job Uracil_m1 E -413.836936227598
  C       1.345813      0.545082     -0.019145
  C       1.214434     -0.810988      0.091671
  N       0.001141     -1.447219      0.116959
  C      -1.151568     -0.672236      0.015358
  N      -1.025959      0.696376     -0.101411
  C       0.169394      1.387169     -0.118193
  O      -2.251379     -1.238771      0.032065
  O       0.212845      2.619653     -0.211716
  H       2.114283     -1.433880      0.165630
  H      -1.877452      1.253128     -0.171076
  H       2.311637      1.055566     -0.038492
11
Coordinates from ORCA-job Uracil_m1 E -413.841799816333
  C       1.351099      0.567023     -0.020677
  C       1.179748     -0.802688      0.089190
  N       0.011160     -1.453909      0.113340
  C      -1.126637     -0.708385      0.017921
  N      -0.998105      0.677870     -0.097364
  C       0.192457      1.403111     -0.120438
  O      -2.265583     -1.206730      0.030699
  O       0.179244      2.642475     -0.218001
  H       2.070991     -1.442379      0.166846
  H      -1.857736      1.220256     -0.164890
  H       2.326552      1.057236     -0.034975
11
Coordinates from ORCA-job Uracil_m1 E -413.842006259382
  C       1.356948      0.569862     -0.019934
  C       1.180658     -0.800203      0.088558
  N       0.008735     -1.454403      0.111135
  C      -1.129950     -0.712759      0.019577
  N      -0.996570      0.676583     -0.095115
  C       0.194882      1.405453     -0.119977
  O      -2.272384     -1.201383      0.029064
  O       0.168320      2.643439     -0.222435
  H       2.073346     -1.439411      0.166217
  H      -1.857327      1.216105     -0.163269
  H       2.336532      1.050597     -0.032171
11
Coordinates from ORCA-job Uracil_m1 E -413.842003405465
  C       1.359074      0.571303     -0.019832
  C       1.180491     -0.797941      0.088517
  N       0.007680     -1.454230      0.110047
  C      -1.131698     -0.715181      0.016742
  N      -0.995480      0.676756     -0.094938
  C       0.195514      1.407593     -0.121935
  O      -2.274604     -1.199714      0.031155
  O       0.161869      2.644367     -0.222951
  H       2.074543     -1.434796      0.166461
  H      -1.857652      1.214048     -0.161763
  H       2.343454      1.041675     -0.029852
11
Coordinates from ORCA-job Uracil_m1 E -413.842013229751
  C       1.358566      0.571977     -0.018998
  C       1.179855     -0.796780      0.088225
  N       0.007617     -1.454128      0.110221
  C      -1.132174     -0.715300      0.021069
  N      -0.995035      0.677471     -0.092404
  C       0.195050      1.409141     -0.120174
  O      -2.274161     -1.200329      0.026855
  O       0.160051      2.644815     -0.226254
  H       2.075141     -1.431781      0.164684
  H      -1.857884      1.213301     -0.162014
  H       2.346164      1.035493     -0.029559
11
Coordinates from ORCA-job Uracil_m1 E -413.842020484721
  C       1.357542      0.572054     -0.019370
  C       1.179493     -0.796707      0.088461
  N       0.007907     -1.454257      0.110632
  C      -1.131782     -0.715150      0.018869
  N      -0.995055      0.677608     -0.092978
  C       0.194595      1.409356     -0.120641
  O      -2.273483     -1.200674      0.028284
  O       0.160842      2.645282     -0.225020
  H       2.075289     -1.431076      0.165256
  H      -1.858042      1.213335     -0.161950
  H       2.345884      1.034109     -0.029892
11
Coordinates from ORCA-job Uracil_m1 E -413.842074687321
  C       1.356875      0.572250     -0.019602
  C       1.179303     -0.796708      0.088427
  N       0.008115     -1.454435      0.110516
  C      -1.131530     -0.714916      0.018689
  N      -0.995132      0.677638     -0.092973
  C       0.194315      1.409455     -0.121442
  O      -2.273136     -1.200835      0.028486
  O       0.161405      2.645684     -0.224446
  H       2.075448     -1.430604      0.165648
  H      -1.858268      1.213219     -0.161816
  H       2.345798      1.033132     -0.029838
11
Coordinates from ORCA-job Uracil_m1 E -413.842075092024
  C       1.356566      0.572472     -0.019574
  C       1.179217     -0.796685      0.088575
  N       0.008210     -1.454494      0.110838
  C      -1.131376     -0.714764      0.018532
  N      -0.995238      0.677642     -0.092617
  C       0.194158      1.409660     -0.120689
  O      -2.273001     -1.200862      0.028059
  O       0.161758      2.645985     -0.224814
  H       2.075560     -1.430341      0.165515
  H      -1.858608      1.212888     -0.161920
  H       2.345944      1.032379     -0.030255
