3
* (null), Energy   -1000.0000000
O    -0.046341    0.043992   -0.014010    0.099700    0.095347   -0.030366
H     0.907825    0.167403   -0.053315   -1.397972   -0.180847    0.057596
H    -0.172292   -0.865638    0.275690   -0.184469   -1.332506    0.424378
3
* Frequency(8) 3886.0417
O    -0.035011    0.054827   -0.017461    0.099700    0.095347   -0.030366
H     0.748953    0.146851   -0.046769   -1.397972   -0.180847    0.057596
H    -0.193256   -1.017070    0.323918   -0.184469   -1.332506    0.424378
3
* Frequency(8) 3886.0417
O    -0.024908    0.064489   -0.020538    0.099700    0.095347   -0.030366
H     0.607297    0.128526   -0.040933   -1.397972   -0.180847    0.057596
H    -0.211948   -1.152093    0.366920   -0.184469   -1.332506    0.424378
3
* Frequency(8) 3886.0417
O    -0.017129    0.071929   -0.022908    0.099700    0.095347   -0.030366
H     0.498208    0.114414   -0.036439   -1.397972   -0.180847    0.057596
H    -0.226343   -1.256073    0.400036   -0.184469   -1.332506    0.424378
3
* Frequency(8) 3886.0417
O    -0.012514    0.076342   -0.024313    0.099700    0.095347   -0.030366
H     0.433507    0.106044   -0.033773   -1.397972   -0.180847    0.057596
H    -0.234881   -1.317744    0.419677   -0.184469   -1.332506    0.424378
3
* Frequency(8) 3886.0417
O    -0.011566    0.077249   -0.024602    0.099700    0.095347   -0.030366
H     0.420206    0.104323   -0.033225   -1.397972   -0.180847    0.057596
H    -0.236636   -1.330422    0.423715   -0.184469   -1.332506    0.424378
3
* Frequency(8) 3886.0417
O    -0.014386    0.074552   -0.023744    0.099700    0.095347   -0.030366
H     0.459746    0.109438   -0.034854   -1.397972   -0.180847    0.057596
H    -0.231418   -1.292734    0.411712   -0.184469   -1.332506    0.424378
3
* Frequency(8) 3886.0417
O    -0.020668    0.068544   -0.021830    0.099700    0.095347   -0.030366
H     0.547842    0.120834   -0.038484   -1.397972   -0.180847    0.057596
H    -0.219794   -1.208763    0.384968   -0.184469   -1.332506    0.424378
3
* Frequency(8) 3886.0417
O    -0.029733    0.059875   -0.019069    0.099700    0.095347   -0.030366
H     0.674949    0.137277   -0.043720   -1.397972   -0.180847    0.057596
H    -0.203022   -1.087609    0.346383   -0.184469   -1.332506    0.424378
3
* Frequency(8) 3886.0417
O    -0.040598    0.049484   -0.015760    0.099700    0.095347   -0.030366
H     0.827290    0.156985   -0.049997   -1.397972   -0.180847    0.057596
H    -0.182919   -0.942401    0.300137   -0.184469   -1.332506    0.424378
3
* Frequency(8) 3886.0417
O    -0.052085    0.038499   -0.012261    0.099700    0.095347   -0.030366
H     0.988360    0.177821   -0.056633   -1.397972   -0.180847    0.057596
H    -0.161665   -0.788875    0.251242   -0.184469   -1.332506    0.424378
3
* Frequency(8) 3886.0417
O    -0.062950    0.028108   -0.008952    0.099700    0.095347   -0.030366
H     1.140701    0.197529   -0.062909   -1.397972   -0.180847    0.057596
H    -0.141563   -0.643667    0.204996   -0.184469   -1.332506    0.424378
3
* Frequency(8) 3886.0417
O    -0.072015    0.019439   -0.006191    0.099700    0.095347   -0.030366
H     1.267808    0.213972   -0.068146   -1.397972   -0.180847    0.057596
H    -0.124791   -0.522513    0.166411   -0.184469   -1.332506    0.424378
3
* Frequency(8) 3886.0417
O    -0.078297    0.013431   -0.004277    0.099700    0.095347   -0.030366
H     1.355904    0.225368   -0.071776   -1.397972   -0.180847    0.057596
H    -0.113166   -0.438542    0.139668   -0.184469   -1.332506    0.424378
3
* Frequency(8) 3886.0417
O    -0.081117    0.010734   -0.003419    0.099700    0.095347   -0.030366
H     1.395444    0.230483   -0.073405   -1.397972   -0.180847    0.057596
H    -0.107949   -0.400854    0.127665   -0.184469   -1.332506    0.424378
3
* Frequency(8) 3886.0417
O    -0.080169    0.011641   -0.003708    0.099700    0.095347   -0.030366
H     1.382143    0.228763   -0.072857   -1.397972   -0.180847    0.057596
H    -0.109704   -0.413532    0.131702   -0.184469   -1.332506    0.424378
3
* Frequency(8) 3886.0417
O    -0.075554    0.016054   -0.005113    0.099700    0.095347   -0.030366
H     1.317442    0.220393   -0.070191   -1.397972   -0.180847    0.057596
H    -0.118241   -0.475203    0.151343   -0.184469   -1.332506    0.424378
3
* Frequency(8) 3886.0417
O    -0.067774    0.023494   -0.007483    0.099700    0.095347   -0.030366
H     1.208353    0.206281   -0.065697   -1.397972   -0.180847    0.057596
H    -0.132636   -0.579183    0.184459   -0.184469   -1.332506    0.424378
3
* Frequency(8) 3886.0417
O    -0.057672    0.033156   -0.010560    0.099700    0.095347   -0.030366
H     1.066697    0.187955   -0.059860   -1.397972   -0.180847    0.057596
H    -0.151328   -0.714206    0.227461   -0.184469   -1.332506    0.424378
3
* Frequency(8) 3886.0417
O    -0.046341    0.043992   -0.014010    0.099700    0.095347   -0.030366
H     0.907825    0.167403   -0.053315   -1.397972   -0.180847    0.057596
H    -0.172292   -0.865638    0.275690   -0.184469   -1.332506    0.424378
