3
* (null), Energy   -1000.0000000
O    -0.046341    0.043992   -0.014010    0.000000    0.000000    0.000000
H     0.907825    0.167403   -0.053315    0.000000    0.000000    0.000000
H    -0.172292   -0.865638    0.275690    0.000000    0.000000    0.000000
3
* Frequency(2)    0.0000
O    -0.046341    0.043992   -0.014010    0.000000    0.000000    0.000000
H     0.907825    0.167403   -0.053315    0.000000    0.000000    0.000000
H    -0.172292   -0.865638    0.275690    0.000000    0.000000    0.000000
3
* Frequency(2)    0.0000
O    -0.046341    0.043992   -0.014010    0.000000    0.000000    0.000000
H     0.907825    0.167403   -0.053315    0.000000    0.000000    0.000000
H    -0.172292   -0.865638    0.275690    0.000000    0.000000    0.000000
3
* Frequency(2)    0.0000
O    -0.046341    0.043992   -0.014010    0.000000    0.000000    0.000000
H     0.907825    0.167403   -0.053315    0.000000    0.000000    0.000000
H    -0.172292   -0.865638    0.275690    0.000000    0.000000    0.000000
3
* Frequency(2)    0.0000
O    -0.046341    0.043992   -0.014010    0.000000    0.000000    0.000000
H     0.907825    0.167403   -0.053315    0.000000    0.000000    0.000000
H    -0.172292   -0.865638    0.275690    0.000000    0.000000    0.000000
3
* Frequency(2)    0.0000
O    -0.046341    0.043992   -0.014010    0.000000    0.000000    0.000000
H     0.907825    0.167403   -0.053315    0.000000    0.000000    0.000000
H    -0.172292   -0.865638    0.275690    0.000000    0.000000    0.000000
3
* Frequency(2)    0.0000
O    -0.046341    0.043992   -0.014010    0.000000    0.000000    0.000000
H     0.907825    0.167403   -0.053315    0.000000    0.000000    0.000000
H    -0.172292   -0.865638    0.275690    0.000000    0.000000    0.000000
3
* Frequency(2)    0.0000
O    -0.046341    0.043992   -0.014010    0.000000    0.000000    0.000000
H     0.907825    0.167403   -0.053315    0.000000    0.000000    0.000000
H    -0.172292   -0.865638    0.275690    0.000000    0.000000    0.000000
3
* Frequency(2)    0.0000
O    -0.046341    0.043992   -0.014010    0.000000    0.000000    0.000000
H     0.907825    0.167403   -0.053315    0.000000    0.000000    0.000000
H    -0.172292   -0.865638    0.275690    0.000000    0.000000    0.000000
3
* Frequency(2)    0.0000
O    -0.046341    0.043992   -0.014010    0.000000    0.000000    0.000000
H     0.907825    0.167403   -0.053315    0.000000    0.000000    0.000000
H    -0.172292   -0.865638    0.275690    0.000000    0.000000    0.000000
3
* Frequency(2)    0.0000
O    -0.046341    0.043992   -0.014010    0.000000    0.000000    0.000000
H     0.907825    0.167403   -0.053315    0.000000    0.000000    0.000000
H    -0.172292   -0.865638    0.275690    0.000000    0.000000    0.000000
3
* Frequency(2)    0.0000
O    -0.046341    0.043992   -0.014010    0.000000    0.000000    0.000000
H     0.907825    0.167403   -0.053315    0.000000    0.000000    0.000000
H    -0.172292   -0.865638    0.275690    0.000000    0.000000    0.000000
3
* Frequency(2)    0.0000
O    -0.046341    0.043992   -0.014010    0.000000    0.000000    0.000000
H     0.907825    0.167403   -0.053315    0.000000    0.000000    0.000000
H    -0.172292   -0.865638    0.275690    0.000000    0.000000    0.000000
3
* Frequency(2)    0.0000
O    -0.046341    0.043992   -0.014010    0.000000    0.000000    0.000000
H     0.907825    0.167403   -0.053315    0.000000    0.000000    0.000000
H    -0.172292   -0.865638    0.275690    0.000000    0.000000    0.000000
3
* Frequency(2)    0.0000
O    -0.046341    0.043992   -0.014010    0.000000    0.000000    0.000000
H     0.907825    0.167403   -0.053315    0.000000    0.000000    0.000000
H    -0.172292   -0.865638    0.275690    0.000000    0.000000    0.000000
3
* Frequency(2)    0.0000
O    -0.046341    0.043992   -0.014010    0.000000    0.000000    0.000000
H     0.907825    0.167403   -0.053315    0.000000    0.000000    0.000000
H    -0.172292   -0.865638    0.275690    0.000000    0.000000    0.000000
3
* Frequency(2)    0.0000
O    -0.046341    0.043992   -0.014010    0.000000    0.000000    0.000000
H     0.907825    0.167403   -0.053315    0.000000    0.000000    0.000000
H    -0.172292   -0.865638    0.275690    0.000000    0.000000    0.000000
3
* Frequency(2)    0.0000
O    -0.046341    0.043992   -0.014010    0.000000    0.000000    0.000000
H     0.907825    0.167403   -0.053315    0.000000    0.000000    0.000000
H    -0.172292   -0.865638    0.275690    0.000000    0.000000    0.000000
3
* Frequency(2)    0.0000
O    -0.046341    0.043992   -0.014010    0.000000    0.000000    0.000000
H     0.907825    0.167403   -0.053315    0.000000    0.000000    0.000000
H    -0.172292   -0.865638    0.275690    0.000000    0.000000    0.000000
3
* Frequency(2)    0.0000
O    -0.046341    0.043992   -0.014010    0.000000    0.000000    0.000000
H     0.907825    0.167403   -0.053315    0.000000    0.000000    0.000000
H    -0.172292   -0.865638    0.275690    0.000000    0.000000    0.000000
