3
* (null), Energy   -1000.0000000
O    -0.046341    0.043992   -0.014010    0.069650   -0.066133    0.021062
H     0.907825    0.167403   -0.053315   -1.383679   -0.269981    0.085984
H    -0.172292   -0.865638    0.275690    0.278195    1.319641   -0.420281
3
* Frequency(7) 3781.3544
O    -0.038426    0.036476   -0.011617    0.069650   -0.066133    0.021062
H     0.750577    0.136721   -0.043543   -1.383679   -0.269981    0.085984
H    -0.140677   -0.715668    0.227927    0.278195    1.319641   -0.420281
3
* Frequency(7) 3781.3544
O    -0.031369    0.029775   -0.009483    0.069650   -0.066133    0.021062
H     0.610369    0.109364   -0.034830   -1.383679   -0.269981    0.085984
H    -0.112488   -0.581949    0.185340    0.278195    1.319641   -0.420281
3
* Frequency(7) 3781.3544
O    -0.025933    0.024614   -0.007839    0.069650   -0.066133    0.021062
H     0.502396    0.088297   -0.028121   -1.383679   -0.269981    0.085984
H    -0.090779   -0.478972    0.152544    0.278195    1.319641   -0.420281
3
* Frequency(7) 3781.3544
O    -0.022710    0.021553   -0.006864    0.069650   -0.066133    0.021062
H     0.438356    0.075801   -0.024141   -1.383679   -0.269981    0.085984
H    -0.077904   -0.417897    0.133092    0.278195    1.319641   -0.420281
3
* Frequency(7) 3781.3544
O    -0.022047    0.020924   -0.006664    0.069650   -0.066133    0.021062
H     0.425191    0.073233   -0.023323   -1.383679   -0.269981    0.085984
H    -0.075257   -0.405341    0.129094    0.278195    1.319641   -0.420281
3
* Frequency(7) 3781.3544
O    -0.024017    0.022795   -0.007260    0.069650   -0.066133    0.021062
H     0.464327    0.080869   -0.025755   -1.383679   -0.269981    0.085984
H    -0.083125   -0.442666    0.140981    0.278195    1.319641   -0.420281
3
* Frequency(7) 3781.3544
O    -0.028406    0.026962   -0.008587    0.069650   -0.066133    0.021062
H     0.551523    0.097882   -0.031174   -1.383679   -0.269981    0.085984
H    -0.100656   -0.525826    0.167466    0.278195    1.319641   -0.420281
3
* Frequency(7) 3781.3544
O    -0.034739    0.032975   -0.010502    0.069650   -0.066133    0.021062
H     0.677330    0.122429   -0.038991   -1.383679   -0.269981    0.085984
H    -0.125950   -0.645810    0.205679    0.278195    1.319641   -0.420281
3
* Frequency(7) 3781.3544
O    -0.042329    0.040182   -0.012797    0.069650   -0.066133    0.021062
H     0.828114    0.151850   -0.048361   -1.383679   -0.269981    0.085984
H    -0.156266   -0.789616    0.251478    0.278195    1.319641   -0.420281
3
* Frequency(7) 3781.3544
O    -0.050354    0.047801   -0.015224    0.069650   -0.066133    0.021062
H     0.987536    0.182956   -0.058268   -1.383679   -0.269981    0.085984
H    -0.188319   -0.941660    0.299901    0.278195    1.319641   -0.420281
3
* Frequency(7) 3781.3544
O    -0.057944    0.055008   -0.017519    0.069650   -0.066133    0.021062
H     1.138320    0.212377   -0.067638   -1.383679   -0.269981    0.085984
H    -0.218635   -1.085466    0.345701    0.278195    1.319641   -0.420281
3
* Frequency(7) 3781.3544
O    -0.064277    0.061021   -0.019434    0.069650   -0.066133    0.021062
H     1.264127    0.236924   -0.075456   -1.383679   -0.269981    0.085984
H    -0.243929   -1.205450    0.383913    0.278195    1.319641   -0.420281
3
* Frequency(7) 3781.3544
O    -0.068666    0.065188   -0.020761    0.069650   -0.066133    0.021062
H     1.351323    0.253938   -0.080874   -1.383679   -0.269981    0.085984
H    -0.261460   -1.288610    0.410398    0.278195    1.319641   -0.420281
3
* Frequency(7) 3781.3544
O    -0.070636    0.067059   -0.021357    0.069650   -0.066133    0.021062
H     1.390459    0.261574   -0.083306   -1.383679   -0.269981    0.085984
H    -0.269328   -1.325935    0.422286    0.278195    1.319641   -0.420281
3
* Frequency(7) 3781.3544
O    -0.069973    0.066430   -0.021157    0.069650   -0.066133    0.021062
H     1.377294    0.259005   -0.082488   -1.383679   -0.269981    0.085984
H    -0.266681   -1.313379    0.418287    0.278195    1.319641   -0.420281
3
* Frequency(7) 3781.3544
O    -0.066749    0.063369   -0.020182    0.069650   -0.066133    0.021062
H     1.313254    0.246510   -0.078509   -1.383679   -0.269981    0.085984
H    -0.253806   -1.252304    0.398835    0.278195    1.319641   -0.420281
3
* Frequency(7) 3781.3544
O    -0.061314    0.058208   -0.018538    0.069650   -0.066133    0.021062
H     1.205281    0.225442   -0.071799   -1.383679   -0.269981    0.085984
H    -0.232097   -1.149327    0.366039    0.278195    1.319641   -0.420281
3
* Frequency(7) 3781.3544
O    -0.054257    0.051507   -0.016404    0.069650   -0.066133    0.021062
H     1.065073    0.198085   -0.063086   -1.383679   -0.269981    0.085984
H    -0.203908   -1.015608    0.323452    0.278195    1.319641   -0.420281
3
* Frequency(7) 3781.3544
O    -0.046341    0.043992   -0.014010    0.069650   -0.066133    0.021062
H     0.907825    0.167403   -0.053315   -1.383679   -0.269981    0.085984
H    -0.172292   -0.865638    0.275690    0.278195    1.319641   -0.420281
