8
Coordinates from ORCA-job .\AcOH E -228.788335354263
  C      -8.235080      1.752520     -0.004460
  C      -6.804370      2.183600      0.034870
  H      -8.303010      0.653820     -0.150410
  H      -8.755660      2.259950     -0.843500
  H      -8.732730      2.020130      0.951150
  O      -6.528600      3.363730      0.189040
  O      -5.820210      1.269610     -0.099830
  H      -4.888560      1.530580     -0.076860
8
Coordinates from ORCA-job .\AcOH E -228.795305714214
  C      -8.218450      1.739884     -0.006020
  C      -6.792459      2.206837      0.039911
  H      -8.289448      0.650208     -0.149342
  H      -8.733754      2.246630     -0.834071
  H      -8.714543      2.013104      0.935887
  O      -6.500127      3.375072      0.192344
  O      -5.868034      1.249092     -0.103481
  H      -4.951404      1.553113     -0.075229
8
Coordinates from ORCA-job .\AcOH E -228.797770534756
  C      -8.206292      1.727004     -0.008383
  C      -6.779669      2.223160      0.037399
  H      -8.277611      0.642452     -0.149760
  H      -8.726644      2.240899     -0.829399
  H      -8.703975      2.010763      0.929989
  O      -6.458819      3.374046      0.194515
  O      -5.905620      1.220256     -0.107778
  H      -5.009589      1.595360     -0.066583
8
Coordinates from ORCA-job .\AcOH E -228.797941504434
  C      -8.209890      1.726737     -0.006789
  C      -6.780089      2.217747      0.048738
  H      -8.280141      0.641334     -0.146963
  H      -8.725389      2.241879     -0.831362
  H      -8.715809      2.015443      0.926664
  O      -6.452909      3.368445      0.194017
  O      -5.897531      1.216047     -0.110481
  H      -5.006462      1.606308     -0.073824
8
Coordinates from ORCA-job .\AcOH E -228.797957829068
  C      -8.215236      1.727999     -0.009141
  C      -6.782379      2.213682      0.029098
  H      -8.281711      0.641510     -0.150030
  H      -8.743067      2.246256     -0.825371
  H      -8.713522      2.017227      0.929686
  O      -6.443751      3.358620      0.194328
  O      -5.885334      1.208590     -0.109009
  H      -5.003220      1.620055     -0.059559
8
Coordinates from ORCA-job .\AcOH E -228.798031801700
  C      -8.212322      1.727729     -0.007693
  C      -6.782380      2.214193      0.040437
  H      -8.278440      0.641633     -0.147735
  H      -8.733329      2.244181     -0.828647
  H      -8.715747      2.017612      0.927390
  O      -6.446431      3.361384      0.194438
  O      -5.891642      1.210451     -0.110784
  H      -5.007928      1.616756     -0.067406
8
Coordinates from ORCA-job .\AcOH E -228.798032321197
  C      -8.212038      1.727994     -0.007621
  C      -6.782793      2.214016      0.040717
  H      -8.277391      0.641842     -0.147397
  H      -8.732867      2.243861     -0.828972
  H      -8.715758      2.017807      0.927241
  O      -6.446366      3.361225      0.194835
  O      -5.892364      1.210485     -0.111028
  H      -5.008643      1.616711     -0.067776
8
Coordinates from ORCA-job .\AcOH E -228.798033719702
  C      -8.211935      1.728199     -0.007568
  C      -6.782997      2.213907      0.040813
  H      -8.276687      0.641956     -0.146908
  H      -8.732723      2.243384     -0.829352
  H      -8.716024      2.018159      0.927021
  O      -6.445987      3.360990      0.195530
  O      -5.892742      1.210450     -0.111452
  H      -5.009125      1.616895     -0.068084
8
Coordinates from ORCA-job .\AcOH E -228.798033709983
  C      -8.211934      1.728268     -0.007522
  C      -6.782998      2.213906      0.040960
  H      -8.276519      0.641955     -0.146448
  H      -8.732595      2.242957     -0.829702
  H      -8.716338      2.018526      0.926798
  O      -6.445823      3.360894      0.196198
  O      -5.892817      1.210499     -0.111863
  H      -5.009196      1.616935     -0.068421
8
Coordinates from ORCA-job .\AcOH E -228.798033723350
  C      -8.211944      1.728574     -0.007199
  C      -6.782936      2.213911      0.042116
  H      -8.275792      0.641815     -0.143205
  H      -8.731445      2.240073     -0.832145
  H      -8.718432      2.021248      0.925187
  O      -6.445071      3.360282      0.200893
  O      -5.893147      1.210890     -0.114763
  H      -5.009452      1.617147     -0.070885
8
Coordinates from ORCA-job .\AcOH E -228.798034797931
  C      -8.211964      1.729355     -0.006097
  C      -6.782737      2.213805      0.046270
  H      -8.273948      0.641167     -0.131855
  H      -8.726901      2.230196     -0.840552
  H      -8.725383      2.031040      0.919429
  O      -6.443082      3.358032      0.217298
  O      -5.894074      1.212359     -0.124900
  H      -5.010130      1.617987     -0.079592
8
Coordinates from ORCA-job .\AcOH E -228.798036664197
  C      -8.211965      1.729846     -0.005169
  C      -6.782613      2.213575      0.049891
  H      -8.272819      0.640545     -0.122031
  H      -8.722601      2.221773     -0.847671
  H      -8.731077      2.039680      0.914322
  O      -6.441719      3.355903      0.231457
  O      -5.894771      1.213732     -0.133657
  H      -5.010655      1.618886     -0.087141
8
Coordinates from ORCA-job .\AcOH E -228.798040574637
  C      -8.211973      1.730581     -0.003825
  C      -6.782434      2.213159      0.055190
  H      -8.271321      0.639781     -0.107554
  H      -8.716169      2.209278     -0.857947
  H      -8.739327      2.052343      0.906612
  O      -6.439646      3.352497      0.252249
  O      -5.895854      1.215916     -0.146523
  H      -5.011496      1.620385     -0.098202
8
Coordinates from ORCA-job .\AcOH E -228.798049076181
  C      -8.211995      1.731685     -0.001914
  C      -6.782164      2.212429      0.062865
  H      -8.269487      0.638995     -0.086406
  H      -8.706591      2.190831     -0.872509
  H      -8.751093      2.070682      0.894963
  O      -6.436501      3.346982      0.282475
  O      -5.897552      1.219452     -0.165239
  H      -5.012837      1.622885     -0.114235
8
Coordinates from ORCA-job .\AcOH E -228.798062592448
  C      -8.212006      1.732380     -0.000314
  C      -6.781985      2.211599      0.069434
  H      -8.268828      0.638392     -0.068215
  H      -8.697715      2.174998     -0.884599
  H      -8.760511      2.086607      0.884609
  O      -6.434307      3.341737      0.308351
  O      -5.898933      1.222847     -0.181299
  H      -5.013936      1.625380     -0.127967
8
Coordinates from ORCA-job .\AcOH E -228.798082500500
  C      -8.212041      1.733227      0.001503
  C      -6.781767      2.210498      0.077028
  H      -8.268451      0.638061     -0.047007
  H      -8.687183      2.156304     -0.898218
  H      -8.771171      2.105009      0.872122
  O      -6.431622      3.335026      0.338363
  O      -5.900660      1.227193     -0.199950
  H      -5.015325      1.628624     -0.143841
8
Coordinates from ORCA-job .\AcOH E -228.798108434968
  C      -8.212081      1.734002      0.003254
  C      -6.781579      2.209261      0.084501
  H      -8.268717      0.638025     -0.025807
  H      -8.676278      2.137443     -0.911321
  H      -8.781224      2.123338      0.859249
  O      -6.429093      3.327704      0.368212
  O      -5.902467      1.231972     -0.218554
  H      -5.016780      1.632196     -0.159534
8
Coordinates from ORCA-job .\AcOH E -228.798139588255
  C      -8.212138      1.734744      0.004930
  C      -6.781415      2.207900      0.091838
  H      -8.269544      0.638323     -0.004629
  H      -8.665099      2.118398     -0.923906
  H      -8.790710      2.141544      0.846011
  O      -6.426642      3.319768      0.397870
  O      -5.904365      1.237180     -0.237101
  H      -5.018307      1.636082     -0.175014
8
Coordinates from ORCA-job .\AcOH E -228.798174940563
  C      -8.212212      1.735483      0.006515
  C      -6.781270      2.206440      0.099003
  H      -8.270859      0.638983      0.016508
  H      -8.653741      2.099160     -0.935965
  H      -8.799644      2.159576      0.832432
  O      -6.424217      3.311227      0.427316
  O      -5.906367      1.242818     -0.255578
  H      -5.019910      1.640253     -0.190231
8
Coordinates from ORCA-job .\AcOH E -228.798213418170
  C      -8.212305      1.736244      0.007990
  C      -6.781142      2.204901      0.105966
  H      -8.272600      0.640029      0.037589
  H      -8.642288      2.079724     -0.947492
  H      -8.808039      2.177397      0.818541
  O      -6.421780      3.302083      0.456527
  O      -5.908481      1.248882     -0.273979
  H      -5.021586      1.644679     -0.205142
8
Coordinates from ORCA-job .\AcOH E -228.798254005705
  C      -8.212418      1.737043      0.009339
  C      -6.781025      2.203300      0.112702
  H      -8.274716      0.641476      0.058600
  H      -8.630819      2.060096     -0.958479
  H      -8.815906      2.194976      0.804360
  O      -6.419307      3.292339      0.485482
  O      -5.910701      1.255375     -0.292298
  H      -5.023327      1.649336     -0.219706
8
Coordinates from ORCA-job .\AcOH E -228.798295803489
  C      -8.212552      1.737890      0.010546
  C      -6.780919      2.201648      0.119191
  H      -8.277166      0.643340      0.079532
  H      -8.619399      2.040283     -0.968923
  H      -8.823260      2.212288      0.789911
  O      -6.416783      3.281995      0.514161
  O      -5.913022      1.262297     -0.310531
  H      -5.025120      1.654199     -0.233887
8
Coordinates from ORCA-job .\AcOH E -228.798338026806
  C      -8.212705      1.738791      0.011597
  C      -6.780820      2.199953      0.125421
  H      -8.279919      0.645630      0.100380
  H      -8.608087      2.020298     -0.978821
  H      -8.830114      2.229315      0.775215
  O      -6.414199      3.271053      0.542544
  O      -5.915429      1.269653     -0.328676
  H      -5.026947      1.659248     -0.247660
8
Coordinates from ORCA-job .\AcOH E -228.798379986824
  C      -8.212877      1.739746      0.012480
  C      -6.780725      2.198220      0.131378
  H      -8.282948      0.648355      0.121137
  H      -8.596935      2.000155     -0.988170
  H      -8.836482      2.246043      0.760290
  O      -6.411555      3.259515      0.570611
  O      -5.917906      1.277443     -0.346727
  H      -5.028791      1.664463     -0.261000
8
Coordinates from ORCA-job .\AcOH E -228.798417514162
  C      -8.213315      1.735056      0.011468
  C      -6.783824      2.199031      0.129980
  H      -8.297324      0.646365      0.140040
  H      -8.579617      1.986751     -0.996875
  H      -8.823464      2.264206      0.754764
  O      -6.426393      3.251017      0.593975
  O      -5.917379      1.286413     -0.366451
  H      -5.026904      1.665101     -0.266902
8
Coordinates from ORCA-job .\AcOH E -228.798492029410
  C      -8.213797      1.737698      0.013341
  C      -6.782063      2.194265      0.140760
  H      -8.298007      0.651665      0.160478
  H      -8.570654      1.964915     -1.005008
  H      -8.837702      2.279898      0.734803
  O      -6.415929      3.236932      0.621485
  O      -5.920109      1.293995     -0.382225
  H      -5.029960      1.674573     -0.283634
8
Coordinates from ORCA-job .\AcOH E -228.798529430140
  C      -8.214051      1.738366      0.014090
  C      -6.781779      2.191782      0.146769
  H      -8.302784      0.655374      0.181037
  H      -8.559239      1.944379     -1.012806
  H      -8.842984      2.296493      0.718520
  O      -6.413203      3.223455      0.648875
  O      -5.922447      1.302997     -0.399591
  H      -5.031733      1.681093     -0.296895
8
Coordinates from ORCA-job .\AcOH E -228.798576751191
  C      -8.214333      1.739887      0.014600
  C      -6.781538      2.188852      0.154133
  H      -8.309051      0.662079      0.211320
  H      -8.543749      1.913456     -1.023376
  H      -8.850003      2.319936      0.694456
  O      -6.408879      3.202387      0.689005
  O      -5.926283      1.317353     -0.425743
  H      -5.034383      1.689991     -0.314395
8
Coordinates from ORCA-job .\AcOH E -228.798630171097
  C      -8.214787      1.742610      0.014337
  C      -6.781162      2.184546      0.163979
  H      -8.318527      0.674332      0.256294
  H      -8.522526      1.866710     -1.037095
  H      -8.859125      2.353218      0.657815
  O      -6.401818      3.168332      0.747410
  O      -5.932104      1.340733     -0.464418
  H      -5.038171      1.703459     -0.338321
8
Coordinates from ORCA-job .\AcOH E -228.798661937265
  C      -8.215432      1.746743      0.012156
  C      -6.780580      2.178353      0.175995
  H      -8.333341      0.696252      0.320252
  H      -8.495140      1.798785     -1.052512
  H      -8.868908      2.398090      0.603880
  O      -6.391615      3.114057      0.827945
  O      -5.940192      1.378209     -0.518466
  H      -5.043011      1.723452     -0.369250
8
Coordinates from ORCA-job .\AcOH E -228.798666983006
  C      -8.215599      1.746955      0.010842
  C      -6.780383      2.178044      0.175277
  H      -8.333901      0.698181      0.324755
  H      -8.496064      1.795533     -1.053514
  H      -8.868746      2.399834      0.601534
  O      -6.391530      3.110404      0.832146
  O      -5.939678      1.380832     -0.521926
  H      -5.042318      1.724157     -0.369115
8
Coordinates from ORCA-job .\AcOH E -228.798671478558
  C      -8.215714      1.747402      0.008154
  C      -6.779929      2.176879      0.174824
  H      -8.335250      0.702506      0.334881
  H      -8.496974      1.787792     -1.055969
  H      -8.868218      2.404215      0.595494
  O      -6.390907      3.102042      0.841915
  O      -5.939330      1.386403     -0.529389
  H      -5.041898      1.726700     -0.369910
8
Coordinates from ORCA-job .\AcOH E -228.798672253985
  C      -8.215712      1.747479      0.007982
  C      -6.779970      2.176743      0.174992
  H      -8.335439      0.702918      0.335805
  H      -8.496667      1.786824     -1.056232
  H      -8.868110      2.404837      0.594822
  O      -6.390918      3.101206      0.843039
  O      -5.939431      1.386898     -0.530021
  H      -5.041972      1.727035     -0.370386
8
Coordinates from ORCA-job .\AcOH E -228.798671538965
  C      -8.215727      1.747499      0.007934
  C      -6.779985      2.176699      0.175044
  H      -8.335449      0.702954      0.335826
  H      -8.496671      1.786739     -1.056280
  H      -8.868034      2.404904      0.594816
  O      -6.390935      3.101153      0.843111
  O      -5.939429      1.386865     -0.529969
  H      -5.041990      1.727126     -0.370483
8
Coordinates from ORCA-job .\AcOH E -228.798671700114
  C      -8.215736      1.747504      0.007931
  C      -6.779989      2.176713      0.175032
  H      -8.335417      0.702924      0.335723
  H      -8.496717      1.786801     -1.056272
  H      -8.868007      2.404860      0.594904
  O      -6.390942      3.101227      0.843015
  O      -5.939422      1.386805     -0.529890
  H      -5.041990      1.727106     -0.370443
8
Coordinates from ORCA-job .\AcOH E -228.798671368789
  C      -8.215741      1.747503      0.007936
  C      -6.779989      2.176728      0.175011
  H      -8.335383      0.702880      0.335605
  H      -8.496770      1.786902     -1.056252
  H      -8.867994      2.404793      0.595004
  O      -6.390952      3.101325      0.842885
  O      -5.939409      1.386741     -0.529806
  H      -5.041982      1.727067     -0.370383
