13
* (null), Energy   -1000.0000000
C     1.653111    0.338806   -0.072409    0.110695    0.123811    0.261120
C     1.417036   -0.968802    0.212159   -0.138222    0.094496   -0.115280
N     0.169278   -1.530502    0.333752    0.006015   -0.131439    0.153578
C    -1.013486   -0.875739    0.188129    0.049215   -0.121982   -0.461198
N    -0.831970    0.606548   -0.032497   -0.091435    0.199307    0.406030
C     0.583167    1.266264   -0.274550    0.056070   -0.178782   -0.530761
O    -2.113843   -1.335674    0.228076    0.032423    0.041204    0.093136
O     0.565830    2.420049   -0.573838   -0.015197   -0.039659    0.130155
H     2.239204   -1.673303    0.354845   -0.062035    0.208534   -0.056607
H     0.099186   -2.533091    0.514228    0.152592   -0.155248    0.122250
H    -1.444922    0.886451   -0.818414    0.800679   -0.368386   -0.484000
H     2.672257    0.711579   -0.172265    0.167834   -0.230811   -0.525825
H    -1.242310    1.089691    0.787885   -1.072028    0.560828   -0.294028
13
* Frequency(19)  909.6958
C     1.665691    0.352877   -0.042734    0.110695    0.123811    0.261120
C     1.401328   -0.958063    0.199058   -0.138222    0.094496   -0.115280
N     0.169962   -1.545440    0.351205    0.006015   -0.131439    0.153578
C    -1.007893   -0.889602    0.135717    0.049215   -0.121982   -0.461198
N    -0.842361    0.629199    0.013646   -0.091435    0.199307    0.406030
C     0.589539    1.245947   -0.334868    0.056070   -0.178782   -0.530761
O    -2.110159   -1.330991    0.238661    0.032423    0.041204    0.093136
O     0.564103    2.415542   -0.559046   -0.015197   -0.039659    0.130155
H     2.232154   -1.649604    0.348412   -0.062035    0.208534   -0.056607
H     0.116528   -2.550735    0.528121    0.152592   -0.155248    0.122250
H    -1.353929    0.844585   -0.873418    0.800679   -0.368386   -0.484000
H     2.691330    0.685349   -0.232022    0.167834   -0.230811   -0.525825
H    -1.364141    1.153426    0.754470   -1.072028    0.560828   -0.294028
13
* Frequency(19)  909.6958
C     1.676908    0.365423   -0.016274    0.110695    0.123811    0.261120
C     1.387322   -0.948488    0.187376   -0.138222    0.094496   -0.115280
N     0.170571   -1.558758    0.366767    0.006015   -0.131439    0.153578
C    -1.002906   -0.901962    0.088984    0.049215   -0.121982   -0.461198
N    -0.851626    0.649394    0.054789   -0.091435    0.199307    0.406030
C     0.595221    1.227831   -0.388650    0.056070   -0.178782   -0.530761
O    -2.106873   -1.326816    0.248098    0.032423    0.041204    0.093136
O     0.562563    2.411524   -0.545858   -0.015197   -0.039659    0.130155
H     2.225868   -1.628473    0.342676   -0.062035    0.208534   -0.056607
H     0.131990   -2.566466    0.540509    0.152592   -0.155248    0.122250
H    -1.272797    0.807257   -0.922462    0.800679   -0.368386   -0.484000
H     2.708337    0.661961   -0.285304    0.167834   -0.230811   -0.525825
H    -1.472769    1.210254    0.724676   -1.072028    0.560828   -0.294028
13
* Frequency(19)  909.6958
C     1.685546    0.375084    0.004102    0.110695    0.123811    0.261120
C     1.376536   -0.941114    0.178381   -0.138222    0.094496   -0.115280
N     0.171041   -1.569015    0.378751    0.006015   -0.131439    0.153578
C    -0.999066   -0.911481    0.052995    0.049215   -0.121982   -0.461198
N    -0.858761    0.664947    0.086473   -0.091435    0.199307    0.406030
C     0.599596    1.213880   -0.430067    0.056070   -0.178782   -0.530761
O    -2.104343   -1.323601    0.255366    0.032423    0.041204    0.093136
O     0.561377    2.408429   -0.535701   -0.015197   -0.039659    0.130155
H     2.221027   -1.612200    0.338258   -0.062035    0.208534   -0.056607
H     0.143897   -2.578580    0.550049    0.152592   -0.155248    0.122250
H    -1.210317    0.778510   -0.960230    0.800679   -0.368386   -0.484000
H     2.721433    0.643950   -0.326336    0.167834   -0.230811   -0.525825
H    -1.556423    1.254018    0.701732   -1.072028    0.560828   -0.294028
13
* Frequency(19)  909.6958
C     1.690669    0.380814    0.016187    0.110695    0.123811    0.261120
C     1.370139   -0.936740    0.173045   -0.138222    0.094496   -0.115280
N     0.171319   -1.575098    0.385859    0.006015   -0.131439    0.153578
C    -0.996788   -0.917127    0.031650    0.049215   -0.121982   -0.461198
N    -0.862993    0.674171    0.105265   -0.091435    0.199307    0.406030
C     0.602191    1.205606   -0.454632    0.056070   -0.178782   -0.530761
O    -2.102843   -1.321694    0.259677    0.032423    0.041204    0.093136
O     0.560674    2.406593   -0.529678   -0.015197   -0.039659    0.130155
H     2.218156   -1.602549    0.335639   -0.062035    0.208534   -0.056607
H     0.150959   -2.585766    0.555706    0.152592   -0.155248    0.122250
H    -1.173260    0.761461   -0.982631    0.800679   -0.368386   -0.484000
H     2.729201    0.633267   -0.350672    0.167834   -0.230811   -0.525825
H    -1.606039    1.279974    0.688124   -1.072028    0.560828   -0.294028
13
* Frequency(19)  909.6958
C     1.691722    0.381992    0.018671    0.110695    0.123811    0.261120
C     1.368824   -0.935841    0.171948   -0.138222    0.094496   -0.115280
N     0.171376   -1.576349    0.387321    0.006015   -0.131439    0.153578
C    -0.996320   -0.918287    0.027261    0.049215   -0.121982   -0.461198
N    -0.863863    0.676068    0.109128   -0.091435    0.199307    0.406030
C     0.602724    1.203905   -0.459682    0.056070   -0.178782   -0.530761
O    -2.102534   -1.321302    0.260563    0.032423    0.041204    0.093136
O     0.560529    2.406216   -0.528439   -0.015197   -0.039659    0.130155
H     2.217566   -1.600565    0.335100   -0.062035    0.208534   -0.056607
H     0.152411   -2.587243    0.556870    0.152592   -0.155248    0.122250
H    -1.165642    0.757956   -0.987236    0.800679   -0.368386   -0.484000
H     2.730798    0.631071   -0.355675    0.167834   -0.230811   -0.525825
H    -1.616238    1.285310    0.685326   -1.072028    0.560828   -0.294028
13
* Frequency(19)  909.6958
C     1.688591    0.378491    0.011286    0.110695    0.123811    0.261120
C     1.372733   -0.938514    0.175209   -0.138222    0.094496   -0.115280
N     0.171206   -1.572631    0.382977    0.006015   -0.131439    0.153578
C    -0.997712   -0.914837    0.040306    0.049215   -0.121982   -0.461198
N    -0.861276    0.670430    0.097644   -0.091435    0.199307    0.406030
C     0.601139    1.208961   -0.444670    0.056070   -0.178782   -0.530761
O    -2.103451   -1.322467    0.257928    0.032423    0.041204    0.093136
O     0.560959    2.407338   -0.532120   -0.015197   -0.039659    0.130155
H     2.219321   -1.606463    0.336701   -0.062035    0.208534   -0.056607
H     0.148095   -2.582852    0.553412    0.152592   -0.155248    0.122250
H    -1.188288    0.768375   -0.973546    0.800679   -0.368386   -0.484000
H     2.726051    0.637600   -0.340802    0.167834   -0.230811   -0.525825
H    -1.585917    1.269447    0.693643   -1.072028    0.560828   -0.294028
13
* Frequency(19)  909.6958
C     1.681616    0.370688   -0.005169    0.110695    0.123811    0.261120
C     1.381444   -0.944469    0.182474   -0.138222    0.094496   -0.115280
N     0.170827   -1.564348    0.373299    0.006015   -0.131439    0.153578
C    -1.000813   -0.907150    0.069369    0.049215   -0.121982   -0.461198
N    -0.855514    0.657871    0.072057   -0.091435    0.199307    0.406030
C     0.597605    1.220228   -0.411222    0.056070   -0.178782   -0.530761
O    -2.105494   -1.325064    0.252059    0.032423    0.041204    0.093136
O     0.561917    2.409837   -0.540322   -0.015197   -0.039659    0.130155
H     2.223230   -1.619604    0.340268   -0.062035    0.208534   -0.056607
H     0.138479   -2.573068    0.545708    0.152592   -0.155248    0.122250
H    -1.238745    0.791590   -0.943046    0.800679   -0.368386   -0.484000
H     2.715475    0.652145   -0.307666    0.167834   -0.230811   -0.525825
H    -1.518361    1.234106    0.712172   -1.072028    0.560828   -0.294028
13
* Frequency(19)  909.6958
C     1.671551    0.359431   -0.028911    0.110695    0.123811    0.261120
C     1.394011   -0.953061    0.192955   -0.138222    0.094496   -0.115280
N     0.170280   -1.552398    0.359335    0.006015   -0.131439    0.153578
C    -1.005288   -0.896059    0.111302    0.049215   -0.121982   -0.461198
N    -0.847201    0.639749    0.035140   -0.091435    0.199307    0.406030
C     0.592507    1.236483   -0.362965    0.056070   -0.178782   -0.530761
O    -2.108442   -1.328810    0.243591    0.032423    0.041204    0.093136
O     0.563298    2.413443   -0.552156   -0.015197   -0.039659    0.130155
H     2.228870   -1.638565    0.345415   -0.062035    0.208534   -0.056607
H     0.124605   -2.558953    0.534593    0.152592   -0.155248    0.122250
H    -1.311544    0.825084   -0.899040    0.800679   -0.368386   -0.484000
H     2.700215    0.673130   -0.259857    0.167834   -0.230811   -0.525825
H    -1.420890    1.183114    0.738905   -1.072028    0.560828   -0.294028
13
* Frequency(19)  909.6958
C     1.659488    0.345939   -0.057366    0.110695    0.123811    0.261120
C     1.409074   -0.963358    0.205518   -0.138222    0.094496   -0.115280
N     0.169625   -1.538074    0.342599    0.006015   -0.131439    0.153578
C    -1.010651   -0.882767    0.161561    0.049215   -0.121982   -0.461198
N    -0.837237    0.618030   -0.009106   -0.091435    0.199307    0.406030
C     0.586397    1.255965   -0.305126    0.056070   -0.178782   -0.530761
O    -2.111976   -1.333300    0.233442    0.032423    0.041204    0.093136
O     0.564954    2.417765   -0.566340   -0.015197   -0.039659    0.130155
H     2.235630   -1.661289    0.351584   -0.062035    0.208534   -0.056607
H     0.107977   -2.542035    0.521271    0.152592   -0.155248    0.122250
H    -1.398797    0.865229   -0.846296    0.800679   -0.368386   -0.484000
H     2.681925    0.698283   -0.202556    0.167834   -0.230811   -0.525825
H    -1.304068    1.121999    0.770946   -1.072028    0.560828   -0.294028
13
* Frequency(19)  909.6958
C     1.646734    0.331674   -0.087451    0.110695    0.123811    0.261120
C     1.424999   -0.974246    0.218800   -0.138222    0.094496   -0.115280
N     0.168932   -1.522930    0.324904    0.006015   -0.131439    0.153578
C    -1.016321   -0.868712    0.214698    0.049215   -0.121982   -0.461198
N    -0.826702    0.595067   -0.055887   -0.091435    0.199307    0.406030
C     0.579937    1.276564   -0.243973    0.056070   -0.178782   -0.530761
O    -2.115711   -1.338047    0.222711    0.032423    0.041204    0.093136
O     0.566705    2.422334   -0.581336   -0.015197   -0.039659    0.130155
H     2.242778   -1.685316    0.358106   -0.062035    0.208534   -0.056607
H     0.090396   -2.524148    0.507186    0.152592   -0.155248    0.122250
H    -1.491048    0.907673   -0.790532    0.800679   -0.368386   -0.484000
H     2.662588    0.724876   -0.141973    0.167834   -0.230811   -0.525825
H    -1.180553    1.057382    0.804823   -1.072028    0.560828   -0.294028
13
* Frequency(19)  909.6958
C     1.634672    0.318182   -0.115906    0.110695    0.123811    0.261120
C     1.440062   -0.984543    0.231362   -0.138222    0.094496   -0.115280
N     0.168276   -1.508607    0.308169    0.006015   -0.131439    0.153578
C    -1.021685   -0.855419    0.264957    0.049215   -0.121982   -0.461198
N    -0.816738    0.573347   -0.100134   -0.091435    0.199307    0.406030
C     0.573827    1.296046   -0.186134    0.056070   -0.178782   -0.530761
O    -2.119244   -1.342537    0.212561    0.032423    0.041204    0.093136
O     0.568361    2.426656   -0.595519   -0.015197   -0.039659    0.130155
H     2.249538   -1.708040    0.364274   -0.062035    0.208534   -0.056607
H     0.073767   -2.507230    0.493864    0.152592   -0.155248    0.122250
H    -1.578301    0.947817   -0.737788    0.800679   -0.368386   -0.484000
H     2.644299    0.750028   -0.084672    0.167834   -0.230811   -0.525825
H    -1.063730    0.996267    0.836865   -1.072028    0.560828   -0.294028
13
* Frequency(19)  909.6958
C     1.624607    0.306925   -0.139648    0.110695    0.123811    0.261120
C     1.452629   -0.993135    0.241844   -0.138222    0.094496   -0.115280
N     0.167729   -1.496656    0.294205    0.006015   -0.131439    0.153578
C    -1.026159   -0.844329    0.306889    0.049215   -0.121982   -0.461198
N    -0.808425    0.555226   -0.137051   -0.091435    0.199307    0.406030
C     0.568729    1.312301   -0.137877    0.056070   -0.178782   -0.530761
O    -2.122192   -1.346284    0.204093    0.032423    0.041204    0.093136
O     0.569743    2.430261   -0.607353   -0.015197   -0.039659    0.130155
H     2.255178   -1.727001    0.369421   -0.062035    0.208534   -0.056607
H     0.059893   -2.493114    0.482749    0.152592   -0.155248    0.122250
H    -1.651100    0.981311   -0.693782    0.800679   -0.368386   -0.484000
H     2.629039    0.771014   -0.036863    0.167834   -0.230811   -0.525825
H    -0.966259    0.945275    0.863598   -1.072028    0.560828   -0.294028
13
* Frequency(19)  909.6958
C     1.617631    0.299122   -0.156103    0.110695    0.123811    0.261120
C     1.461340   -0.999090    0.249109   -0.138222    0.094496   -0.115280
N     0.167350   -1.488373    0.284527    0.006015   -0.131439    0.153578
C    -1.029261   -0.836642    0.335953    0.049215   -0.121982   -0.461198
N    -0.802663    0.542666   -0.162638   -0.091435    0.199307    0.406030
C     0.565196    1.323568   -0.104430    0.056070   -0.178782   -0.530761
O    -2.124236   -1.348880    0.198224    0.032423    0.041204    0.093136
O     0.570701    2.432761   -0.615555   -0.015197   -0.039659    0.130155
H     2.259087   -1.740142    0.372988   -0.062035    0.208534   -0.056607
H     0.050278   -2.483331    0.475045    0.152592   -0.155248    0.122250
H    -1.701556    1.004526   -0.663282    0.800679   -0.368386   -0.484000
H     2.618463    0.785559   -0.003727    0.167834   -0.230811   -0.525825
H    -0.898703    0.909934    0.882127   -1.072028    0.560828   -0.294028
13
* Frequency(19)  909.6958
C     1.614500    0.295620   -0.163488    0.110695    0.123811    0.261120
C     1.465249   -1.001762    0.252369   -0.138222    0.094496   -0.115280
N     0.167180   -1.484656    0.280183    0.006015   -0.131439    0.153578
C    -1.030653   -0.833192    0.348997    0.049215   -0.121982   -0.461198
N    -0.800077    0.537029   -0.174122   -0.091435    0.199307    0.406030
C     0.563610    1.328624   -0.089418    0.056070   -0.178782   -0.530761
O    -2.125153   -1.350046    0.195590    0.032423    0.041204    0.093136
O     0.571131    2.433882   -0.619236   -0.015197   -0.039659    0.130155
H     2.260842   -1.746040    0.374589   -0.062035    0.208534   -0.056607
H     0.045962   -2.478940    0.471587    0.152592   -0.155248    0.122250
H    -1.724203    1.014945   -0.649592    0.800679   -0.368386   -0.484000
H     2.613716    0.792087    0.011146    0.167834   -0.230811   -0.525825
H    -0.868382    0.894071    0.890443   -1.072028    0.560828   -0.294028
13
* Frequency(19)  909.6958
C     1.615554    0.296798   -0.161004    0.110695    0.123811    0.261120
C     1.463934   -1.000863    0.251272   -0.138222    0.094496   -0.115280
N     0.167237   -1.485906    0.281644    0.006015   -0.131439    0.153578
C    -1.030184   -0.834352    0.344609    0.049215   -0.121982   -0.461198
N    -0.800946    0.538925   -0.170259   -0.091435    0.199307    0.406030
C     0.564143    1.326923   -0.094467    0.056070   -0.178782   -0.530761
O    -2.124844   -1.349654    0.196476    0.032423    0.041204    0.093136
O     0.570986    2.433505   -0.617998   -0.015197   -0.039659    0.130155
H     2.260252   -1.744056    0.374051   -0.062035    0.208534   -0.056607
H     0.047413   -2.480417    0.472750    0.152592   -0.155248    0.122250
H    -1.716585    1.011440   -0.654197    0.800679   -0.368386   -0.484000
H     2.615312    0.789891    0.006143    0.167834   -0.230811   -0.525825
H    -0.878582    0.899407    0.887646   -1.072028    0.560828   -0.294028
13
* Frequency(19)  909.6958
C     1.620677    0.302529   -0.148919    0.110695    0.123811    0.261120
C     1.457537   -0.996490    0.245937   -0.138222    0.094496   -0.115280
N     0.167516   -1.491990    0.288752    0.006015   -0.131439    0.153578
C    -1.027907   -0.839998    0.323264    0.049215   -0.121982   -0.461198
N    -0.805178    0.548150   -0.151467   -0.091435    0.199307    0.406030
C     0.566738    1.318649   -0.119032    0.056070   -0.178782   -0.530761
O    -2.123344   -1.347747    0.200787    0.032423    0.041204    0.093136
O     0.570283    2.431670   -0.611974   -0.015197   -0.039659    0.130155
H     2.257381   -1.734405    0.371431   -0.062035    0.208534   -0.056607
H     0.054476   -2.487602    0.478408    0.152592   -0.155248    0.122250
H    -1.679528    0.994391   -0.676598    0.800679   -0.368386   -0.484000
H     2.623080    0.779209   -0.018193    0.167834   -0.230811   -0.525825
H    -0.928197    0.925363    0.874038   -1.072028    0.560828   -0.294028
13
* Frequency(19)  909.6958
C     1.629315    0.312190   -0.128543    0.110695    0.123811    0.261120
C     1.446751   -0.989116    0.236941   -0.138222    0.094496   -0.115280
N     0.167985   -1.502246    0.300737    0.006015   -0.131439    0.153578
C    -1.024066   -0.849516    0.287275    0.049215   -0.121982   -0.461198
N    -0.812313    0.563702   -0.119783   -0.091435    0.199307    0.406030
C     0.571114    1.304698   -0.160449    0.056070   -0.178782   -0.530761
O    -2.120813   -1.344531    0.208054    0.032423    0.041204    0.093136
O     0.569097    2.428575   -0.601818   -0.015197   -0.039659    0.130155
H     2.252540   -1.718132    0.367014   -0.062035    0.208534   -0.056607
H     0.066383   -2.499717    0.487948    0.152592   -0.155248    0.122250
H    -1.617048    0.965644   -0.714366    0.800679   -0.368386   -0.484000
H     2.636177    0.761198   -0.059226    0.167834   -0.230811   -0.525825
H    -1.011852    0.969127    0.851093   -1.072028    0.560828   -0.294028
13
* Frequency(19)  909.6958
C     1.640531    0.324736   -0.102083    0.110695    0.123811    0.261120
C     1.432745   -0.979541    0.225260   -0.138222    0.094496   -0.115280
N     0.168595   -1.515565    0.316298    0.006015   -0.131439    0.153578
C    -1.019079   -0.861877    0.240542    0.049215   -0.121982   -0.461198
N    -0.821578    0.583898   -0.078640   -0.091435    0.199307    0.406030
C     0.576795    1.286582   -0.214231    0.056070   -0.178782   -0.530761
O    -2.117528   -1.340356    0.217492    0.032423    0.041204    0.093136
O     0.567557    2.424556   -0.588629   -0.015197   -0.039659    0.130155
H     2.246254   -1.697001    0.361278   -0.062035    0.208534   -0.056607
H     0.081845   -2.515448    0.500335    0.152592   -0.155248    0.122250
H    -1.535915    0.928316   -0.763410    0.800679   -0.368386   -0.484000
H     2.653183    0.737810   -0.112507    0.167834   -0.230811   -0.525825
H    -1.120480    1.025955    0.821300   -1.072028    0.560828   -0.294028
13
* Frequency(19)  909.6958
C     1.653111    0.338806   -0.072409    0.110695    0.123811    0.261120
C     1.417036   -0.968802    0.212159   -0.138222    0.094496   -0.115280
N     0.169278   -1.530502    0.333752    0.006015   -0.131439    0.153578
C    -1.013486   -0.875739    0.188129    0.049215   -0.121982   -0.461198
N    -0.831970    0.606548   -0.032497   -0.091435    0.199307    0.406030
C     0.583167    1.266264   -0.274550    0.056070   -0.178782   -0.530761
O    -2.113843   -1.335674    0.228076    0.032423    0.041204    0.093136
O     0.565830    2.420049   -0.573838   -0.015197   -0.039659    0.130155
H     2.239204   -1.673303    0.354845   -0.062035    0.208534   -0.056607
H     0.099186   -2.533091    0.514228    0.152592   -0.155248    0.122250
H    -1.444922    0.886451   -0.818414    0.800679   -0.368386   -0.484000
H     2.672257    0.711579   -0.172265    0.167834   -0.230811   -0.525825
H    -1.242310    1.089691    0.787885   -1.072028    0.560828   -0.294028
