13
* (null), Energy   -1000.0000000
C     1.365855    0.533997   -0.017795   -0.135706    0.148319   -0.018599
C     1.281863   -0.788655    0.093257   -0.332295    0.213039   -0.033314
N    -0.021011   -1.450395    0.118437    0.213824   -0.424635    0.049957
C    -1.289878   -0.622329    0.007801   -0.247950    0.340424   -0.047324
N    -1.064188    0.706802   -0.097341    0.115820    0.336604   -0.022646
C     0.168081    1.391376   -0.119566    0.224666   -0.199882    0.025021
O    -2.334795   -1.198357    0.024143    0.071781   -0.116470    0.014546
O     0.193513    2.595440   -0.217241   -0.088368   -0.265831    0.018733
H     2.123010   -1.478478    0.173803    0.253651    0.955276   -0.059019
H    -0.114939   -2.012404    0.984263    0.339004   -0.343667    0.114794
H    -1.901448    1.289086   -0.172072    0.637805    1.089862   -0.075270
H     2.334895    1.034094   -0.036100   -0.049028   -0.047098    0.032902
H    -0.071619   -2.162707   -0.633029    0.355141   -0.343689   -0.036770
13
* Frequency(18)  869.4210
C     1.350433    0.550853   -0.019909   -0.135706    0.148319   -0.018599
C     1.244099   -0.764445    0.089471   -0.332295    0.213039   -0.033314
N     0.003289   -1.498653    0.124115    0.213824   -0.424635    0.049957
C    -1.318056   -0.583642    0.002423   -0.247950    0.340424   -0.047324
N    -1.051026    0.745055   -0.099915    0.115820    0.336604   -0.022646
C     0.193613    1.368660   -0.116723    0.224666   -0.199882    0.025021
O    -2.326637   -1.211593    0.025796    0.071781   -0.116470    0.014546
O     0.183470    2.565230   -0.215112   -0.088368   -0.265831    0.018733
H     2.151836   -1.369916    0.167096    0.253651    0.955276   -0.059019
H    -0.076413   -2.051460    0.997309    0.339004   -0.343667    0.114794
H    -1.828965    1.412943   -0.180626    0.637805    1.089862   -0.075270
H     2.329323    1.028742   -0.032361   -0.049028   -0.047098    0.032902
H    -0.031259   -2.201765   -0.637207    0.355141   -0.343689   -0.036770
13
* Frequency(18)  869.4210
C     1.336682    0.565882   -0.021794   -0.135706    0.148319   -0.018599
C     1.210428   -0.742858    0.086095   -0.332295    0.213039   -0.033314
N     0.024956   -1.541681    0.129177    0.213824   -0.424635    0.049957
C    -1.343180   -0.549147   -0.002372   -0.247950    0.340424   -0.047324
N    -1.039290    0.779163   -0.102210    0.115820    0.336604   -0.022646
C     0.216379    1.348406   -0.114187    0.224666   -0.199882    0.025021
O    -2.319364   -1.223395    0.027270    0.071781   -0.116470    0.014546
O     0.174516    2.538293   -0.213214   -0.088368   -0.265831    0.018733
H     2.177538   -1.273118    0.161116    0.253651    0.955276   -0.059019
H    -0.042061   -2.086284    1.008941    0.339004   -0.343667    0.114794
H    -1.764336    1.523379   -0.188254    0.637805    1.089862   -0.075270
H     2.324355    1.023969   -0.029027   -0.049028   -0.047098    0.032902
H     0.004727   -2.236591   -0.640933    0.355141   -0.343689   -0.036770
13
* Frequency(18)  869.4210
C     1.326092    0.577456   -0.023245   -0.135706    0.148319   -0.018599
C     1.184498   -0.726233    0.083495   -0.332295    0.213039   -0.033314
N     0.041642   -1.574817    0.133075    0.213824   -0.424635    0.049957
C    -1.362529   -0.522582   -0.006065   -0.247950    0.340424   -0.047324
N    -1.030252    0.805429   -0.103977    0.115820    0.336604   -0.022646
C     0.233910    1.332809   -0.112235    0.224666   -0.199882    0.025021
O    -2.313762   -1.232484    0.028405    0.071781   -0.116470    0.014546
O     0.167620    2.517550   -0.211752   -0.088368   -0.265831    0.018733
H     2.197332   -1.198574    0.156511    0.253651    0.955276   -0.059019
H    -0.015608   -2.113101    1.017899    0.339004   -0.343667    0.114794
H    -1.714566    1.608425   -0.194127    0.637805    1.089862   -0.075270
H     2.320529    1.020294   -0.026459   -0.049028   -0.047098    0.032902
H     0.032440   -2.263410   -0.643803    0.355141   -0.343689   -0.036770
13
* Frequency(18)  869.4210
C     1.319811    0.584320   -0.024106   -0.135706    0.148319   -0.018599
C     1.169118   -0.716373    0.081954   -0.332295    0.213039   -0.033314
N     0.051538   -1.594470    0.135387    0.213824   -0.424635    0.049957
C    -1.374004   -0.506827   -0.008256   -0.247950    0.340424   -0.047324
N    -1.024891    0.821008   -0.105025    0.115820    0.336604   -0.022646
C     0.244308    1.323558   -0.111077    0.224666   -0.199882    0.025021
O    -2.310440   -1.237874    0.029078    0.071781   -0.116470    0.014546
O     0.163530    2.505247   -0.210885   -0.088368   -0.265831    0.018733
H     2.209071   -1.154362    0.153779    0.253651    0.955276   -0.059019
H     0.000082   -2.129007    1.023212    0.339004   -0.343667    0.114794
H    -1.685047    1.658866   -0.197611    0.637805    1.089862   -0.075270
H     2.318260    1.018114   -0.024937   -0.049028   -0.047098    0.032902
H     0.048877   -2.279317   -0.645504    0.355141   -0.343689   -0.036770
13
* Frequency(18)  869.4210
C     1.318520    0.585732   -0.024283   -0.135706    0.148319   -0.018599
C     1.165957   -0.714346    0.081637   -0.332295    0.213039   -0.033314
N     0.053572   -1.598510    0.135862    0.213824   -0.424635    0.049957
C    -1.376364   -0.503588   -0.008706   -0.247950    0.340424   -0.047324
N    -1.023789    0.824211   -0.105240    0.115820    0.336604   -0.022646
C     0.246446    1.321656   -0.110839    0.224666   -0.199882    0.025021
O    -2.309757   -1.238982    0.029217    0.071781   -0.116470    0.014546
O     0.162690    2.502717   -0.210707   -0.088368   -0.265831    0.018733
H     2.211485   -1.145273    0.153217    0.253651    0.955276   -0.059019
H     0.003308   -2.132277    1.024304    0.339004   -0.343667    0.114794
H    -1.678979    1.669235   -0.198327    0.637805    1.089862   -0.075270
H     2.317794    1.017666   -0.024624   -0.049028   -0.047098    0.032902
H     0.052256   -2.282587   -0.645854    0.355141   -0.343689   -0.036770
13
* Frequency(18)  869.4210
C     1.322358    0.581537   -0.023757   -0.135706    0.148319   -0.018599
C     1.175355   -0.720372    0.082579   -0.332295    0.213039   -0.033314
N     0.047524   -1.586500    0.134449    0.213824   -0.424635    0.049957
C    -1.369351   -0.513217   -0.007367   -0.247950    0.340424   -0.047324
N    -1.027065    0.814690   -0.104600    0.115820    0.336604   -0.022646
C     0.240091    1.327310   -0.111547    0.224666   -0.199882    0.025021
O    -2.311788   -1.235688    0.028805    0.071781   -0.116470    0.014546
O     0.165189    2.510236   -0.211237   -0.088368   -0.265831    0.018733
H     2.204310   -1.172292    0.154887    0.253651    0.955276   -0.059019
H    -0.006281   -2.122556    1.021057    0.339004   -0.343667    0.114794
H    -1.697018    1.638409   -0.196198    0.637805    1.089862   -0.075270
H     2.319180    1.018998   -0.025554   -0.049028   -0.047098    0.032902
H     0.042211   -2.272866   -0.644814    0.355141   -0.343689   -0.036770
13
* Frequency(18)  869.4210
C     1.330910    0.572190   -0.022585   -0.135706    0.148319   -0.018599
C     1.196296   -0.733797    0.084678   -0.332295    0.213039   -0.033314
N     0.034050   -1.559740    0.131301    0.213824   -0.424635    0.049957
C    -1.353725   -0.534669   -0.004385   -0.247950    0.340424   -0.047324
N    -1.034364    0.793478   -0.103173    0.115820    0.336604   -0.022646
C     0.225933    1.339906   -0.113123    0.224666   -0.199882    0.025021
O    -2.316311   -1.228348    0.027889    0.071781   -0.116470    0.014546
O     0.170758    2.526988   -0.212417   -0.088368   -0.265831    0.018733
H     2.188326   -1.232491    0.158606    0.253651    0.955276   -0.059019
H    -0.027644   -2.100899    1.013823    0.339004   -0.343667    0.114794
H    -1.737211    1.569729   -0.191455    0.637805    1.089862   -0.075270
H     2.322270    1.021966   -0.027628   -0.049028   -0.047098    0.032902
H     0.019831   -2.251208   -0.642497    0.355141   -0.343689   -0.036770
13
* Frequency(18)  869.4210
C     1.343249    0.558705   -0.020894   -0.135706    0.148319   -0.018599
C     1.226509   -0.753167    0.087707   -0.332295    0.213039   -0.033314
N     0.014609   -1.521132    0.126759    0.213824   -0.424635    0.049957
C    -1.331181   -0.565621   -0.000082   -0.247950    0.340424   -0.047324
N    -1.044894    0.762874   -0.101114    0.115820    0.336604   -0.022646
C     0.205506    1.358079   -0.115398    0.224666   -0.199882    0.025021
O    -2.322838   -1.217759    0.026566    0.071781   -0.116470    0.014546
O     0.178792    2.551158   -0.214121   -0.088368   -0.265831    0.018733
H     2.165264   -1.319346    0.163972    0.253651    0.955276   -0.059019
H    -0.058467   -2.069653    1.003386    0.339004   -0.343667    0.114794
H    -1.795201    1.470637   -0.184611    0.637805    1.089862   -0.075270
H     2.326728    1.026248   -0.030619   -0.049028   -0.047098    0.032902
H    -0.012459   -2.219959   -0.639154    0.355141   -0.343689   -0.036770
13
* Frequency(18)  869.4210
C     1.358037    0.542542   -0.018867   -0.135706    0.148319   -0.018599
C     1.262720   -0.776383    0.091338   -0.332295    0.213039   -0.033314
N    -0.008693   -1.474858    0.121315    0.213824   -0.424635    0.049957
C    -1.304161   -0.602718    0.005075   -0.247950    0.340424   -0.047324
N    -1.057516    0.726193   -0.098646    0.115820    0.336604   -0.022646
C     0.181024    1.379861   -0.118125    0.224666   -0.199882    0.025021
O    -2.330660   -1.205067    0.024981    0.071781   -0.116470    0.014546
O     0.188422    2.580126   -0.216162   -0.088368   -0.265831    0.018733
H     2.137622   -1.423446    0.170404    0.253651    0.955276   -0.059019
H    -0.095409   -2.032202    0.990876    0.339004   -0.343667    0.114794
H    -1.864705    1.351871   -0.176409    0.637805    1.089862   -0.075270
H     2.332070    1.031381   -0.034205   -0.049028   -0.047098    0.032902
H    -0.051160   -2.182506   -0.635147    0.355141   -0.343689   -0.036770
13
* Frequency(18)  869.4210
C     1.373673    0.525453   -0.016724   -0.135706    0.148319   -0.018599
C     1.301006   -0.800928    0.095176   -0.332295    0.213039   -0.033314
N    -0.033329   -1.425933    0.115559    0.213824   -0.424635    0.049957
C    -1.275594   -0.641941    0.010527   -0.247950    0.340424   -0.047324
N    -1.070860    0.687411   -0.096037    0.115820    0.336604   -0.022646
C     0.155139    1.402891   -0.121008    0.224666   -0.199882    0.025021
O    -2.338930   -1.191648    0.023305    0.071781   -0.116470    0.014546
O     0.198604    2.610754   -0.218320   -0.088368   -0.265831    0.018733
H     2.108398   -1.533509    0.177203    0.253651    0.955276   -0.059019
H    -0.134468   -1.992606    0.977650    0.339004   -0.343667    0.114794
H    -1.938191    1.226301   -0.167736    0.637805    1.089862   -0.075270
H     2.337719    1.036807   -0.037995   -0.049028   -0.047098    0.032902
H    -0.092078   -2.142907   -0.630910    0.355141   -0.343689   -0.036770
13
* Frequency(18)  869.4210
C     1.388461    0.509290   -0.014697   -0.135706    0.148319   -0.018599
C     1.337217   -0.824144    0.098806   -0.332295    0.213039   -0.033314
N    -0.056630   -1.379659    0.110115    0.213824   -0.424635    0.049957
C    -1.248574   -0.679038    0.015684   -0.247950    0.340424   -0.047324
N    -1.083481    0.650730   -0.093569    0.115820    0.336604   -0.022646
C     0.130656    1.424673   -0.123734    0.224666   -0.199882    0.025021
O    -2.346752   -1.178955    0.021720    0.071781   -0.116470    0.014546
O     0.208233    2.639723   -0.220362   -0.088368   -0.265831    0.018733
H     2.080756   -1.637609    0.183635    0.253651    0.955276   -0.059019
H    -0.171410   -1.955155    0.965141    0.339004   -0.343667    0.114794
H    -2.007695    1.107535   -0.159534    0.637805    1.089862   -0.075270
H     2.343062    1.041940   -0.041581   -0.049028   -0.047098    0.032902
H    -0.130779   -2.105454   -0.626903    0.355141   -0.343689   -0.036770
13
* Frequency(18)  869.4210
C     1.400800    0.495805   -0.013006   -0.135706    0.148319   -0.018599
C     1.367430   -0.843514    0.101835   -0.332295    0.213039   -0.033314
N    -0.076071   -1.341050    0.105573    0.213824   -0.424635    0.049957
C    -1.226030   -0.709990    0.019987   -0.247950    0.340424   -0.047324
N    -1.094012    0.620125   -0.091510    0.115820    0.336604   -0.022646
C     0.110229    1.442846   -0.126009    0.224666   -0.199882    0.025021
O    -2.353279   -1.168366    0.020398    0.071781   -0.116470    0.014546
O     0.216268    2.663893   -0.222065   -0.088368   -0.265831    0.018733
H     2.057694   -1.724465    0.189001    0.253651    0.955276   -0.059019
H    -0.202233   -1.923909    0.954704    0.339004   -0.343667    0.114794
H    -2.065685    1.008443   -0.152690    0.637805    1.089862   -0.075270
H     2.347520    1.046222   -0.044572   -0.049028   -0.047098    0.032902
H    -0.163069   -2.074206   -0.623560    0.355141   -0.343689   -0.036770
13
* Frequency(18)  869.4210
C     1.409351    0.486458   -0.011834   -0.135706    0.148319   -0.018599
C     1.388370   -0.856939    0.103935   -0.332295    0.213039   -0.033314
N    -0.089546   -1.314291    0.102425    0.213824   -0.424635    0.049957
C    -1.210404   -0.731442    0.022970   -0.247950    0.340424   -0.047324
N    -1.101310    0.598913   -0.090083    0.115820    0.336604   -0.022646
C     0.096071    1.455442   -0.127586    0.224666   -0.199882    0.025021
O    -2.357802   -1.161026    0.019481    0.071781   -0.116470    0.014546
O     0.221837    2.680645   -0.223246   -0.088368   -0.265831    0.018733
H     2.041710   -1.784664    0.192720    0.253651    0.955276   -0.059019
H    -0.223596   -1.902252    0.947470    0.339004   -0.343667    0.114794
H    -2.105878    0.939763   -0.147947    0.637805    1.089862   -0.075270
H     2.350609    1.049190   -0.046646   -0.049028   -0.047098    0.032902
H    -0.185449   -2.052547   -0.621243    0.355141   -0.343689   -0.036770
13
* Frequency(18)  869.4210
C     1.413190    0.482263   -0.011308   -0.135706    0.148319   -0.018599
C     1.397769   -0.862964    0.104877   -0.332295    0.213039   -0.033314
N    -0.095594   -1.302280    0.101012    0.213824   -0.424635    0.049957
C    -1.203391   -0.741071    0.024308   -0.247950    0.340424   -0.047324
N    -1.104586    0.589393   -0.089442    0.115820    0.336604   -0.022646
C     0.089717    1.461096   -0.128294    0.224666   -0.199882    0.025021
O    -2.359833   -1.157732    0.019070    0.071781   -0.116470    0.014546
O     0.224336    2.688163   -0.223775   -0.088368   -0.265831    0.018733
H     2.034535   -1.811682    0.194389    0.253651    0.955276   -0.059019
H    -0.233185   -1.892531    0.944223    0.339004   -0.343667    0.114794
H    -2.123917    0.908937   -0.145818    0.637805    1.089862   -0.075270
H     2.351996    1.050522   -0.047576   -0.049028   -0.047098    0.032902
H    -0.195494   -2.042826   -0.620203    0.355141   -0.343689   -0.036770
13
* Frequency(18)  869.4210
C     1.411899    0.483674   -0.011485   -0.135706    0.148319   -0.018599
C     1.394607   -0.860937    0.104560   -0.332295    0.213039   -0.033314
N    -0.093559   -1.306320    0.101487    0.213824   -0.424635    0.049957
C    -1.205751   -0.737832    0.023858   -0.247950    0.340424   -0.047324
N    -1.103484    0.592595   -0.089657    0.115820    0.336604   -0.022646
C     0.091854    1.459194   -0.128056    0.224666   -0.199882    0.025021
O    -2.359150   -1.158840    0.019208    0.071781   -0.116470    0.014546
O     0.223495    2.685634   -0.223597   -0.088368   -0.265831    0.018733
H     2.036949   -1.802594    0.193828    0.253651    0.955276   -0.059019
H    -0.229959   -1.895801    0.945315    0.339004   -0.343667    0.114794
H    -2.117849    0.919307   -0.146534    0.637805    1.089862   -0.075270
H     2.351529    1.050074   -0.047263   -0.049028   -0.047098    0.032902
H    -0.192115   -2.046096   -0.620553    0.355141   -0.343689   -0.036770
13
* Frequency(18)  869.4210
C     1.405618    0.490539   -0.012346   -0.135706    0.148319   -0.018599
C     1.379228   -0.851078    0.103018   -0.332295    0.213039   -0.033314
N    -0.083663   -1.325973    0.103800    0.213824   -0.424635    0.049957
C    -1.217226   -0.722076    0.021668   -0.247950    0.340424   -0.047324
N    -1.098124    0.608174   -0.090706    0.115820    0.336604   -0.022646
C     0.102252    1.449943   -0.126898    0.224666   -0.199882    0.025021
O    -2.355828   -1.164231    0.019881    0.071781   -0.116470    0.014546
O     0.219405    2.673331   -0.222730   -0.088368   -0.265831    0.018733
H     2.048688   -1.758382    0.191096    0.253651    0.955276   -0.059019
H    -0.214269   -1.911707    0.950628    0.339004   -0.343667    0.114794
H    -2.088330    0.969747   -0.150018    0.637805    1.089862   -0.075270
H     2.349260    1.047894   -0.045740   -0.049028   -0.047098    0.032902
H    -0.175678   -2.062003   -0.622255    0.355141   -0.343689   -0.036770
13
* Frequency(18)  869.4210
C     1.395028    0.502113   -0.013797   -0.135706    0.148319   -0.018599
C     1.353298   -0.834453    0.100418   -0.332295    0.213039   -0.033314
N    -0.066977   -1.359109    0.107698    0.213824   -0.424635    0.049957
C    -1.236575   -0.695512    0.017975   -0.247950    0.340424   -0.047324
N    -1.089086    0.634440   -0.092473    0.115820    0.336604   -0.022646
C     0.119784    1.434345   -0.124945    0.224666   -0.199882    0.025021
O    -2.350226   -1.173319    0.021016    0.071781   -0.116470    0.014546
O     0.212510    2.652587   -0.221268   -0.088368   -0.265831    0.018733
H     2.068482   -1.683838    0.186491    0.253651    0.955276   -0.059019
H    -0.187816   -1.938524    0.959586    0.339004   -0.343667    0.114794
H    -2.038560    1.054793   -0.155891    0.637805    1.089862   -0.075270
H     2.345434    1.044219   -0.043173   -0.049028   -0.047098    0.032902
H    -0.147965   -2.088822   -0.625124    0.355141   -0.343689   -0.036770
13
* Frequency(18)  869.4210
C     1.381277    0.517142   -0.015682   -0.135706    0.148319   -0.018599
C     1.319627   -0.812866    0.097043   -0.332295    0.213039   -0.033314
N    -0.045311   -1.402137    0.112760    0.213824   -0.424635    0.049957
C    -1.261699   -0.661017    0.013179   -0.247950    0.340424   -0.047324
N    -1.077350    0.668548   -0.094768    0.115820    0.336604   -0.022646
C     0.142549    1.414091   -0.122410    0.224666   -0.199882    0.025021
O    -2.342953   -1.185121    0.022490    0.071781   -0.116470    0.014546
O     0.203555    2.625651   -0.219370   -0.088368   -0.265831    0.018733
H     2.094184   -1.587040    0.180511    0.253651    0.955276   -0.059019
H    -0.153465   -1.973348    0.971218    0.339004   -0.343667    0.114794
H    -1.973931    1.165229   -0.163518    0.637805    1.089862   -0.075270
H     2.340467    1.039446   -0.039839   -0.049028   -0.047098    0.032902
H    -0.111979   -2.123648   -0.628850    0.355141   -0.343689   -0.036770
13
* Frequency(18)  869.4210
C     1.365855    0.533997   -0.017795   -0.135706    0.148319   -0.018599
C     1.281863   -0.788655    0.093257   -0.332295    0.213039   -0.033314
N    -0.021011   -1.450395    0.118437    0.213824   -0.424635    0.049957
C    -1.289878   -0.622329    0.007801   -0.247950    0.340424   -0.047324
N    -1.064188    0.706802   -0.097341    0.115820    0.336604   -0.022646
C     0.168081    1.391376   -0.119566    0.224666   -0.199882    0.025021
O    -2.334795   -1.198357    0.024143    0.071781   -0.116470    0.014546
O     0.193513    2.595440   -0.217241   -0.088368   -0.265831    0.018733
H     2.123010   -1.478478    0.173803    0.253651    0.955276   -0.059019
H    -0.114939   -2.012404    0.984263    0.339004   -0.343667    0.114794
H    -1.901448    1.289086   -0.172072    0.637805    1.089862   -0.075270
H     2.334895    1.034094   -0.036100   -0.049028   -0.047098    0.032902
H    -0.071619   -2.162707   -0.633029    0.355141   -0.343689   -0.036770
