13
* (null), Energy   -1000.0000000
C     1.653111    0.338806   -0.072409    0.000630   -0.046615   -0.264133
C     1.417036   -0.968802    0.212159   -0.023426    0.100084    0.425669
N     0.169278   -1.530502    0.333752   -0.012192   -0.077648   -0.260140
C    -1.013486   -0.875739    0.188129   -0.015985   -0.068562   -0.167536
N    -0.831970    0.606548   -0.032497    0.056231   -0.039709    0.002439
C     0.583167    1.266264   -0.274550    0.026238   -0.033979   -0.336744
O    -2.113843   -1.335674    0.228076   -0.041795    0.016903    0.134278
O     0.565830    2.420049   -0.573838   -0.006033    0.098646    0.178869
H     2.239204   -1.673303    0.354845   -0.007780    0.317759    1.412986
H     0.099186   -2.533091    0.514228    0.027009   -0.013241    0.113846
H    -1.444922    0.886451   -0.818414   -0.430334    0.327379    0.520579
H     2.672257    0.711579   -0.172265    0.026081    0.010379    0.201392
H    -1.242310    1.089691    0.787885    0.681649   -0.260759    0.445910
13
* Frequency(9)  381.4475
C     1.653183    0.333509   -0.102426    0.000630   -0.046615   -0.264133
C     1.414374   -0.957428    0.260534   -0.023426    0.100084    0.425669
N     0.167893   -1.539327    0.304188   -0.012192   -0.077648   -0.260140
C    -1.015303   -0.883531    0.169090   -0.015985   -0.068562   -0.167536
N    -0.825579    0.602036   -0.032220    0.056231   -0.039709    0.002439
C     0.586149    1.262403   -0.312819    0.026238   -0.033979   -0.336744
O    -2.118593   -1.333753    0.243336   -0.041795    0.016903    0.134278
O     0.565144    2.431260   -0.553510   -0.006033    0.098646    0.178869
H     2.238320   -1.637191    0.515423   -0.007780    0.317759    1.412986
H     0.102256   -2.534596    0.527166    0.027009   -0.013241    0.113846
H    -1.493828    0.923656   -0.759253   -0.430334    0.327379    0.520579
H     2.675221    0.712759   -0.149377    0.026081    0.010379    0.201392
H    -1.164844    1.060057    0.838560    0.681649   -0.260759    0.445910
13
* Frequency(9)  381.4475
C     1.653247    0.328785   -0.129190    0.000630   -0.046615   -0.264133
C     1.412000   -0.947286    0.303667   -0.023426    0.100084    0.425669
N     0.166657   -1.547195    0.277828   -0.012192   -0.077648   -0.260140
C    -1.016923   -0.890479    0.152113   -0.015985   -0.068562   -0.167536
N    -0.819881    0.598012   -0.031972    0.056231   -0.039709    0.002439
C     0.588808    1.258960   -0.346941    0.026238   -0.033979   -0.336744
O    -2.122828   -1.332040    0.256943   -0.041795    0.016903    0.134278
O     0.564533    2.441256   -0.535385   -0.006033    0.098646    0.178869
H     2.237531   -1.604993    0.658601   -0.007780    0.317759    1.412986
H     0.104993   -2.535938    0.538702    0.027009   -0.013241    0.113846
H    -1.537433    0.956829   -0.706503   -0.430334    0.327379    0.520579
H     2.677863    0.713810   -0.128970    0.026081    0.010379    0.201392
H    -1.095773    1.033634    0.883744    0.681649   -0.260759    0.445910
13
* Frequency(9)  381.4475
C     1.653296    0.325148   -0.149802    0.000630   -0.046615   -0.264133
C     1.410172   -0.939476    0.336883   -0.023426    0.100084    0.425669
N     0.165706   -1.553254    0.257529   -0.012192   -0.077648   -0.260140
C    -1.018170   -0.895829    0.139040   -0.015985   -0.068562   -0.167536
N    -0.815493    0.594913   -0.031782    0.056231   -0.039709    0.002439
C     0.590855    1.256308   -0.373218    0.026238   -0.033979   -0.336744
O    -2.126090   -1.330721    0.267421   -0.041795    0.016903    0.134278
O     0.564062    2.448953   -0.521428   -0.006033    0.098646    0.178869
H     2.236924   -1.580197    0.768861   -0.007780    0.317759    1.412986
H     0.107100   -2.536971    0.547586    0.027009   -0.013241    0.113846
H    -1.571014    0.982375   -0.665880   -0.430334    0.327379    0.520579
H     2.679899    0.714620   -0.113255    0.026081    0.010379    0.201392
H    -1.042581    1.013286    0.918540    0.681649   -0.260759    0.445910
13
* Frequency(9)  381.4475
C     1.653325    0.322990   -0.162026    0.000630   -0.046615   -0.264133
C     1.409088   -0.934844    0.356584   -0.023426    0.100084    0.425669
N     0.165142   -1.556848    0.245489   -0.012192   -0.077648   -0.260140
C    -1.018910   -0.899002    0.131286   -0.015985   -0.068562   -0.167536
N    -0.812891    0.593075   -0.031669    0.056231   -0.039709    0.002439
C     0.592069    1.254736   -0.388803    0.026238   -0.033979   -0.336744
O    -2.128024   -1.329939    0.273636   -0.041795    0.016903    0.134278
O     0.563783    2.453519   -0.513149   -0.006033    0.098646    0.178869
H     2.236564   -1.565490    0.834257   -0.007780    0.317759    1.412986
H     0.108350   -2.537584    0.552855    0.027009   -0.013241    0.113846
H    -1.590930    0.997527   -0.641787   -0.430334    0.327379    0.520579
H     2.681106    0.715101   -0.103934    0.026081    0.010379    0.201392
H    -1.011033    1.001218    0.939178    0.681649   -0.260759    0.445910
13
* Frequency(9)  381.4475
C     1.653331    0.322547   -0.164539    0.000630   -0.046615   -0.264133
C     1.408865   -0.933892    0.360634   -0.023426    0.100084    0.425669
N     0.165026   -1.557586    0.243014   -0.012192   -0.077648   -0.260140
C    -1.019062   -0.899654    0.129692   -0.015985   -0.068562   -0.167536
N    -0.812356    0.592698   -0.031646    0.056231   -0.039709    0.002439
C     0.592319    1.254412   -0.392007    0.026238   -0.033979   -0.336744
O    -2.128421   -1.329778    0.274913   -0.041795    0.016903    0.134278
O     0.563725    2.454457   -0.511447   -0.006033    0.098646    0.178869
H     2.236490   -1.562467    0.847701   -0.007780    0.317759    1.412986
H     0.108607   -2.537710    0.553938    0.027009   -0.013241    0.113846
H    -1.595025    1.000642   -0.636834   -0.430334    0.327379    0.520579
H     2.681354    0.715199   -0.102018    0.026081    0.010379    0.201392
H    -1.004548    0.998737    0.943420    0.681649   -0.260759    0.445910
13
* Frequency(9)  381.4475
C     1.653313    0.323865   -0.157069    0.000630   -0.046615   -0.264133
C     1.409528   -0.936723    0.348594   -0.023426    0.100084    0.425669
N     0.165370   -1.555390    0.250372   -0.012192   -0.077648   -0.260140
C    -1.018610   -0.897715    0.134431   -0.015985   -0.068562   -0.167536
N    -0.813946    0.593821   -0.031715    0.056231   -0.039709    0.002439
C     0.591577    1.255373   -0.382483    0.026238   -0.033979   -0.336744
O    -2.127239   -1.330256    0.271115   -0.041795    0.016903    0.134278
O     0.563896    2.451667   -0.516506   -0.006033    0.098646    0.178869
H     2.236710   -1.571454    0.807736   -0.007780    0.317759    1.412986
H     0.107843   -2.537335    0.550718    0.027009   -0.013241    0.113846
H    -1.582853    0.991382   -0.651558   -0.430334    0.327379    0.520579
H     2.680616    0.714906   -0.107714    0.026081    0.010379    0.201392
H    -1.023828    1.006112    0.930808    0.681649   -0.260759    0.445910
13
* Frequency(9)  381.4475
C     1.653274    0.326803   -0.140424    0.000630   -0.046615   -0.264133
C     1.411004   -0.943030    0.321770   -0.023426    0.100084    0.425669
N     0.166139   -1.550497    0.266765   -0.012192   -0.077648   -0.260140
C    -1.017602   -0.893394    0.144988   -0.015985   -0.068562   -0.167536
N    -0.817490    0.596323   -0.031869    0.056231   -0.039709    0.002439
C     0.589923    1.257515   -0.361262    0.026238   -0.033979   -0.336744
O    -2.124606   -1.331321    0.262653   -0.041795    0.016903    0.134278
O     0.564276    2.445451   -0.527778   -0.006033    0.098646    0.178869
H     2.237200   -1.591479    0.718693   -0.007780    0.317759    1.412986
H     0.106141   -2.536501    0.543544    0.027009   -0.013241    0.113846
H    -1.555735    0.970752   -0.684363   -0.430334    0.327379    0.520579
H     2.678973    0.714252   -0.120405    0.026081    0.010379    0.201392
H    -1.066783    1.022544    0.902708    0.681649   -0.260759    0.445910
13
* Frequency(9)  381.4475
C     1.653216    0.331041   -0.116408    0.000630   -0.046615   -0.264133
C     1.413134   -0.952130    0.283067   -0.023426    0.100084    0.425669
N     0.167247   -1.543437    0.290417   -0.012192   -0.077648   -0.260140
C    -1.016149   -0.887161    0.160221   -0.015985   -0.068562   -0.167536
N    -0.822603    0.599934   -0.032090    0.056231   -0.039709    0.002439
C     0.587538    1.260604   -0.330645    0.026238   -0.033979   -0.336744
O    -2.120806   -1.332858    0.250445   -0.041795    0.016903    0.134278
O     0.564825    2.436482   -0.544041   -0.006033    0.098646    0.178869
H     2.237908   -1.620370    0.590222   -0.007780    0.317759    1.412986
H     0.103686   -2.535297    0.533193    0.027009   -0.013241    0.113846
H    -1.516608    0.940986   -0.731695   -0.430334    0.327379    0.520579
H     2.676601    0.713308   -0.138716    0.026081    0.010379    0.201392
H    -1.128760    1.046253    0.862165    0.681649   -0.260759    0.445910
13
* Frequency(9)  381.4475
C     1.653148    0.336121   -0.087625    0.000630   -0.046615   -0.264133
C     1.415687   -0.963036    0.236681   -0.023426    0.100084    0.425669
N     0.168576   -1.534976    0.318766   -0.012192   -0.077648   -0.260140
C    -1.014407   -0.879689    0.178478   -0.015985   -0.068562   -0.167536
N    -0.828730    0.604261   -0.032356    0.056231   -0.039709    0.002439
C     0.584679    1.264307   -0.293949    0.026238   -0.033979   -0.336744
O    -2.116251   -1.334700    0.235812   -0.041795    0.016903    0.134278
O     0.565482    2.425732   -0.563533   -0.006033    0.098646    0.178869
H     2.238756   -1.654997    0.436244   -0.007780    0.317759    1.412986
H     0.100742   -2.533854    0.520787    0.027009   -0.013241    0.113846
H    -1.469713    0.905310   -0.788424   -0.430334    0.327379    0.520579
H     2.673759    0.712177   -0.160663    0.026081    0.010379    0.201392
H    -1.203042    1.074669    0.813573    0.681649   -0.260759    0.445910
13
* Frequency(9)  381.4475
C     1.653075    0.341492   -0.057192    0.000630   -0.046615   -0.264133
C     1.418386   -0.974568    0.187637   -0.023426    0.100084    0.425669
N     0.169981   -1.526029    0.348738   -0.012192   -0.077648   -0.260140
C    -1.012565   -0.871790    0.197781   -0.015985   -0.068562   -0.167536
N    -0.835209    0.608836   -0.032637    0.056231   -0.039709    0.002439
C     0.581656    1.268222   -0.255150    0.026238   -0.033979   -0.336744
O    -2.111436   -1.336647    0.220341   -0.041795    0.016903    0.134278
O     0.566177    2.414366   -0.584142   -0.006033    0.098646    0.178869
H     2.239652   -1.691608    0.273445   -0.007780    0.317759    1.412986
H     0.097631   -2.532329    0.507670    0.027009   -0.013241    0.113846
H    -1.420132    0.867591   -0.848404   -0.430334    0.327379    0.520579
H     2.670754    0.710981   -0.183866    0.026081    0.010379    0.201392
H    -1.281579    1.104712    0.762197    0.681649   -0.260759    0.445910
13
* Frequency(9)  381.4475
C     1.653006    0.346572   -0.028409    0.000630   -0.046615   -0.264133
C     1.420939   -0.985474    0.141250   -0.023426    0.100084    0.425669
N     0.171309   -1.517568    0.377086   -0.012192   -0.077648   -0.260140
C    -1.010823   -0.864318    0.216038   -0.015985   -0.068562   -0.167536
N    -0.841337    0.613163   -0.032903    0.056231   -0.039709    0.002439
C     0.578796    1.271925   -0.218454    0.026238   -0.033979   -0.336744
O    -2.106881   -1.338489    0.205708   -0.041795    0.016903    0.134278
O     0.566835    2.403617   -0.603634   -0.006033    0.098646    0.178869
H     2.240500   -1.726235    0.119467   -0.007780    0.317759    1.412986
H     0.094687   -2.530886    0.495264    0.027009   -0.013241    0.113846
H    -1.373237    0.831915   -0.905133   -0.430334    0.327379    0.520579
H     2.667912    0.709850   -0.205813    0.026081    0.010379    0.201392
H    -1.355860    1.133128    0.713604    0.681649   -0.260759    0.445910
13
* Frequency(9)  381.4475
C     1.652949    0.350810   -0.004394    0.000630   -0.046615   -0.264133
C     1.423069   -0.994574    0.102548   -0.023426    0.100084    0.425669
N     0.172418   -1.510508    0.400739   -0.012192   -0.077648   -0.260140
C    -1.009370   -0.858084    0.231271   -0.015985   -0.068562   -0.167536
N    -0.846449    0.616774   -0.033125    0.056231   -0.039709    0.002439
C     0.576411    1.275014   -0.187837    0.026238   -0.033979   -0.336744
O    -2.103081   -1.340026    0.193499   -0.041795    0.016903    0.134278
O     0.567383    2.394648   -0.619897   -0.006033    0.098646    0.178869
H     2.241207   -1.755126   -0.009004   -0.007780    0.317759    1.412986
H     0.092232   -2.529682    0.484913    0.027009   -0.013241    0.113846
H    -1.334110    0.802149   -0.952465   -0.430334    0.327379    0.520579
H     2.665541    0.708907   -0.224124    0.026081    0.010379    0.201392
H    -1.417837    1.156837    0.673061    0.681649   -0.260759    0.445910
13
* Frequency(9)  381.4475
C     1.652909    0.353747    0.012251    0.000630   -0.046615   -0.264133
C     1.424545   -1.000881    0.075723   -0.023426    0.100084    0.425669
N     0.173186   -1.505615    0.417132   -0.012192   -0.077648   -0.260140
C    -1.008363   -0.853764    0.241828   -0.015985   -0.068562   -0.167536
N    -0.849993    0.619276   -0.033279    0.056231   -0.039709    0.002439
C     0.574757    1.277155   -0.166616    0.026238   -0.033979   -0.336744
O    -2.100447   -1.341091    0.185037   -0.041795    0.016903    0.134278
O     0.567764    2.388431   -0.631169   -0.006033    0.098646    0.178869
H     2.241698   -1.775151   -0.098047   -0.007780    0.317759    1.412986
H     0.090530   -2.528847    0.477738    0.027009   -0.013241    0.113846
H    -1.306991    0.781519   -0.985270   -0.430334    0.327379    0.520579
H     2.663897    0.708253   -0.236815    0.026081    0.010379    0.201392
H    -1.460793    1.173269    0.644961    0.681649   -0.260759    0.445910
13
* Frequency(9)  381.4475
C     1.652891    0.355066    0.019722    0.000630   -0.046615   -0.264133
C     1.425207   -1.003712    0.063684   -0.023426    0.100084    0.425669
N     0.173531   -1.503418    0.424490   -0.012192   -0.077648   -0.260140
C    -1.007911   -0.851825    0.246567   -0.015985   -0.068562   -0.167536
N    -0.851583    0.620399   -0.033348    0.056231   -0.039709    0.002439
C     0.574015    1.278116   -0.157092    0.026238   -0.033979   -0.336744
O    -2.099265   -1.341569    0.181239   -0.041795    0.016903    0.134278
O     0.567934    2.385641   -0.636228   -0.006033    0.098646    0.178869
H     2.241918   -1.784138   -0.138011   -0.007780    0.317759    1.412986
H     0.089766   -2.528473    0.474518    0.027009   -0.013241    0.113846
H    -1.294820    0.772259   -0.999994   -0.430334    0.327379    0.520579
H     2.663160    0.707959   -0.242511    0.026081    0.010379    0.201392
H    -1.480073    1.180644    0.632349    0.681649   -0.260759    0.445910
13
* Frequency(9)  381.4475
C     1.652897    0.354622    0.017209    0.000630   -0.046615   -0.264133
C     1.424985   -1.002759    0.067734   -0.023426    0.100084    0.425669
N     0.173415   -1.504157    0.422015   -0.012192   -0.077648   -0.260140
C    -1.008063   -0.852477    0.244973   -0.015985   -0.068562   -0.167536
N    -0.851048    0.620021   -0.033324    0.056231   -0.039709    0.002439
C     0.574265    1.277793   -0.160296    0.026238   -0.033979   -0.336744
O    -2.099663   -1.341408    0.182517   -0.041795    0.016903    0.134278
O     0.567877    2.386580   -0.634526   -0.006033    0.098646    0.178869
H     2.241844   -1.781115   -0.124568   -0.007780    0.317759    1.412986
H     0.090023   -2.528599    0.475602    0.027009   -0.013241    0.113846
H    -1.298914    0.775374   -0.995041   -0.430334    0.327379    0.520579
H     2.663408    0.708058   -0.240595    0.026081    0.010379    0.201392
H    -1.473587    1.178163    0.636592    0.681649   -0.260759    0.445910
13
* Frequency(9)  381.4475
C     1.652927    0.352465    0.004984    0.000630   -0.046615   -0.264133
C     1.423900   -0.998127    0.087434   -0.023426    0.100084    0.425669
N     0.172851   -1.507751    0.409975   -0.012192   -0.077648   -0.260140
C    -1.008803   -0.855650    0.237219   -0.015985   -0.068562   -0.167536
N    -0.848446    0.618183   -0.033211    0.056231   -0.039709    0.002439
C     0.575479    1.276221   -0.175881    0.026238   -0.033979   -0.336744
O    -2.101597   -1.340626    0.188732   -0.041795    0.016903    0.134278
O     0.567598    2.391145   -0.626248   -0.006033    0.098646    0.178869
H     2.241484   -1.766408   -0.059172   -0.007780    0.317759    1.412986
H     0.091273   -2.529212    0.480871    0.027009   -0.013241    0.113846
H    -1.318831    0.790526   -0.970948   -0.430334    0.327379    0.520579
H     2.664615    0.708538   -0.231274    0.026081    0.010379    0.201392
H    -1.442039    1.166095    0.657229    0.681649   -0.260759    0.445910
13
* Frequency(9)  381.4475
C     1.652976    0.348827   -0.015627    0.000630   -0.046615   -0.264133
C     1.422072   -0.990317    0.120651   -0.023426    0.100084    0.425669
N     0.171899   -1.513810    0.389675   -0.012192   -0.077648   -0.260140
C    -1.010050   -0.861000    0.224146   -0.015985   -0.068562   -0.167536
N    -0.844058    0.615085   -0.033021    0.056231   -0.039709    0.002439
C     0.577527    1.273569   -0.202158    0.026238   -0.033979   -0.336744
O    -2.104859   -1.339307    0.199210   -0.041795    0.016903    0.134278
O     0.567127    2.398843   -0.612290   -0.006033    0.098646    0.178869
H     2.240876   -1.741612    0.051089   -0.007780    0.317759    1.412986
H     0.093380   -2.530245    0.489754    0.027009   -0.013241    0.113846
H    -1.352412    0.816073   -0.930325   -0.430334    0.327379    0.520579
H     2.666650    0.709348   -0.215559    0.026081    0.010379    0.201392
H    -1.388847    1.145747    0.692026    0.681649   -0.260759    0.445910
13
* Frequency(9)  381.4475
C     1.653040    0.344104   -0.042391    0.000630   -0.046615   -0.264133
C     1.419699   -0.980176    0.163784   -0.023426    0.100084    0.425669
N     0.170664   -1.521678    0.363315   -0.012192   -0.077648   -0.260140
C    -1.011670   -0.867948    0.207169   -0.015985   -0.068562   -0.167536
N    -0.838360    0.611061   -0.032774    0.056231   -0.039709    0.002439
C     0.580185    1.270126   -0.236280    0.026238   -0.033979   -0.336744
O    -2.109094   -1.337595    0.212816   -0.041795    0.016903    0.134278
O     0.566516    2.408839   -0.594165   -0.006033    0.098646    0.178869
H     2.240088   -1.709414    0.194266   -0.007780    0.317759    1.412986
H     0.096117   -2.531587    0.501290    0.027009   -0.013241    0.113846
H    -1.396017    0.849246   -0.877575   -0.430334    0.327379    0.520579
H     2.669293    0.710400   -0.195152    0.026081    0.010379    0.201392
H    -1.319776    1.119324    0.737209    0.681649   -0.260759    0.445910
13
* Frequency(9)  381.4475
C     1.653111    0.338806   -0.072409    0.000630   -0.046615   -0.264133
C     1.417036   -0.968802    0.212159   -0.023426    0.100084    0.425669
N     0.169278   -1.530502    0.333752   -0.012192   -0.077648   -0.260140
C    -1.013486   -0.875739    0.188129   -0.015985   -0.068562   -0.167536
N    -0.831970    0.606548   -0.032497    0.056231   -0.039709    0.002439
C     0.583167    1.266264   -0.274550    0.026238   -0.033979   -0.336744
O    -2.113843   -1.335674    0.228076   -0.041795    0.016903    0.134278
O     0.565830    2.420049   -0.573838   -0.006033    0.098646    0.178869
H     2.239204   -1.673303    0.354845   -0.007780    0.317759    1.412986
H     0.099186   -2.533091    0.514228    0.027009   -0.013241    0.113846
H    -1.444922    0.886451   -0.818414   -0.430334    0.327379    0.520579
H     2.672257    0.711579   -0.172265    0.026081    0.010379    0.201392
H    -1.242310    1.089691    0.787885    0.681649   -0.260759    0.445910
