13
* (null), Energy   -1000.0000000
C     1.653111    0.338806   -0.072409    0.018923   -0.214096    0.048134
C     1.417036   -0.968802    0.212159   -0.165596    0.062394   -0.021855
N     0.169278   -1.530502    0.333752    0.138229    0.298921   -0.059499
C    -1.013486   -0.875739    0.188129    0.114722   -0.304400    0.062422
N    -0.831970    0.606548   -0.032497   -0.009572    0.086472   -0.017808
C     0.583167    1.266264   -0.274550   -0.146650    0.006820   -0.002186
O    -2.113843   -1.335674    0.228076   -0.000294    0.065308   -0.013734
O     0.565830    2.420049   -0.573838   -0.004959    0.046568   -0.009968
H     2.239204   -1.673303    0.354845   -0.490721   -0.261297    0.076797
H     0.099186   -2.533091    0.514228    0.747711    0.280454   -0.064880
H    -1.444922    0.886451   -0.818414   -0.195863   -0.164317    0.037221
H     2.672257    0.711579   -0.172265    0.499301   -1.498274    0.324323
H    -1.242310    1.089691    0.787885   -0.136713   -0.134137    0.046111
13
* Frequency(23) 1097.3766
C     1.655262    0.314476   -0.066938    0.018923   -0.214096    0.048134
C     1.398217   -0.961711    0.209675   -0.165596    0.062394   -0.021855
N     0.184987   -1.496532    0.326990    0.138229    0.298921   -0.059499
C    -1.000449   -0.910333    0.195223    0.114722   -0.304400    0.062422
N    -0.833057    0.616375   -0.034521   -0.009572    0.086472   -0.017808
C     0.566501    1.267040   -0.274798   -0.146650    0.006820   -0.002186
O    -2.113877   -1.328252    0.226515   -0.000294    0.065308   -0.013734
O     0.565266    2.425342   -0.574970   -0.004959    0.046568   -0.009968
H     2.183436   -1.702998    0.363572   -0.490721   -0.261297    0.076797
H     0.184160   -2.501219    0.506855    0.747711    0.280454   -0.064880
H    -1.467181    0.867777   -0.814184   -0.195863   -0.164317    0.037221
H     2.729000    0.541308   -0.135407    0.499301   -1.498274    0.324323
H    -1.257847    1.074447    0.793125   -0.136713   -0.134137    0.046111
13
* Frequency(23) 1097.3766
C     1.657179    0.292781   -0.062061    0.018923   -0.214096    0.048134
C     1.381437   -0.955389    0.207460   -0.165596    0.062394   -0.021855
N     0.198994   -1.466242    0.320961    0.138229    0.298921   -0.059499
C    -0.988824   -0.941178    0.201549    0.114722   -0.304400    0.062422
N    -0.834027    0.625138   -0.036325   -0.009572    0.086472   -0.017808
C     0.551641    1.267731   -0.275020   -0.146650    0.006820   -0.002186
O    -2.113907   -1.321634    0.225124   -0.000294    0.065308   -0.013734
O     0.564764    2.430060   -0.575981   -0.004959    0.046568   -0.009968
H     2.133711   -1.729475    0.371354   -0.490721   -0.261297    0.076797
H     0.259925   -2.472801    0.500281    0.747711    0.280454   -0.064880
H    -1.487028    0.851127   -0.810412   -0.195863   -0.164317    0.037221
H     2.779594    0.389489   -0.102543    0.499301   -1.498274    0.324323
H    -1.271700    1.060854    0.797797   -0.136713   -0.134137    0.046111
13
* Frequency(23) 1097.3766
C     1.658656    0.276075   -0.058305    0.018923   -0.214096    0.048134
C     1.368515   -0.950520    0.205755   -0.165596    0.062394   -0.021855
N     0.209781   -1.442916    0.316318    0.138229    0.298921   -0.059499
C    -0.979872   -0.964931    0.206420    0.114722   -0.304400    0.062422
N    -0.834774    0.631885   -0.037715   -0.009572    0.086472   -0.017808
C     0.540197    1.268263   -0.275190   -0.146650    0.006820   -0.002186
O    -2.113929   -1.316538    0.224052   -0.000294    0.065308   -0.013734
O     0.564377    2.433694   -0.576758   -0.004959    0.046568   -0.009968
H     2.095419   -1.749865    0.377347   -0.490721   -0.261297    0.076797
H     0.318272   -2.450916    0.495218    0.747711    0.280454   -0.064880
H    -1.502312    0.838305   -0.807508   -0.195863   -0.164317    0.037221
H     2.818556    0.272573   -0.077235    0.499301   -1.498274    0.324323
H    -1.282368    1.050387    0.801396   -0.136713   -0.134137    0.046111
13
* Frequency(23) 1097.3766
C     1.659532    0.266166   -0.056077    0.018923   -0.214096    0.048134
C     1.360851   -0.947632    0.204744   -0.165596    0.062394   -0.021855
N     0.216178   -1.429082    0.313564    0.138229    0.298921   -0.059499
C    -0.974562   -0.979019    0.209309    0.114722   -0.304400    0.062422
N    -0.835217    0.635888   -0.038539   -0.009572    0.086472   -0.017808
C     0.533410    1.268579   -0.275291   -0.146650    0.006820   -0.002186
O    -2.113943   -1.313515    0.223416   -0.000294    0.065308   -0.013734
O     0.564147    2.435849   -0.577220   -0.004959    0.046568   -0.009968
H     2.072707   -1.761958    0.380901   -0.490721   -0.261297    0.076797
H     0.352877   -2.437936    0.492215    0.747711    0.280454   -0.064880
H    -1.511377    0.830700   -0.805785   -0.195863   -0.164317    0.037221
H     2.841665    0.203230   -0.062225    0.499301   -1.498274    0.324323
H    -1.288696    1.044179    0.803530   -0.136713   -0.134137    0.046111
13
* Frequency(23) 1097.3766
C     1.659712    0.264129   -0.055619    0.018923   -0.214096    0.048134
C     1.359276   -0.947039    0.204536   -0.165596    0.062394   -0.021855
N     0.217493   -1.426237    0.312998    0.138229    0.298921   -0.059499
C    -0.973471   -0.981915    0.209902    0.114722   -0.304400    0.062422
N    -0.835308    0.636710   -0.038708   -0.009572    0.086472   -0.017808
C     0.532015    1.268643   -0.275312   -0.146650    0.006820   -0.002186
O    -2.113946   -1.312894    0.223286   -0.000294    0.065308   -0.013734
O     0.564100    2.436293   -0.577315   -0.004959    0.046568   -0.009968
H     2.068038   -1.764444    0.381632   -0.490721   -0.261297    0.076797
H     0.359992   -2.435268    0.491598    0.747711    0.280454   -0.064880
H    -1.513240    0.829136   -0.805431   -0.195863   -0.164317    0.037221
H     2.846415    0.188974   -0.059139    0.499301   -1.498274    0.324323
H    -1.289996    1.042903    0.803968   -0.136713   -0.134137    0.046111
13
* Frequency(23) 1097.3766
C     1.659177    0.270184   -0.056981    0.018923   -0.214096    0.048134
C     1.363959   -0.948803    0.205154   -0.165596    0.062394   -0.021855
N     0.213584   -1.434692    0.314681    0.138229    0.298921   -0.059499
C    -0.976715   -0.973306    0.208137    0.114722   -0.304400    0.062422
N    -0.835038    0.634265   -0.038205   -0.009572    0.086472   -0.017808
C     0.536163    1.268450   -0.275250   -0.146650    0.006820   -0.002186
O    -2.113938   -1.314741    0.223674   -0.000294    0.065308   -0.013734
O     0.564240    2.434975   -0.577033   -0.004959    0.046568   -0.009968
H     2.081918   -1.757054    0.379460   -0.490721   -0.261297    0.076797
H     0.338843   -2.443200    0.493433    0.747711    0.280454   -0.064880
H    -1.507701    0.833784   -0.806484   -0.195863   -0.164317    0.037221
H     2.832293    0.231351   -0.068312    0.499301   -1.498274    0.324323
H    -1.286130    1.046697    0.802664   -0.136713   -0.134137    0.046111
13
* Frequency(23) 1097.3766
C     1.657984    0.283676   -0.060014    0.018923   -0.214096    0.048134
C     1.374395   -0.952735    0.206531   -0.165596    0.062394   -0.021855
N     0.204873   -1.453529    0.318431    0.138229    0.298921   -0.059499
C    -0.983945   -0.954123    0.204203    0.114722   -0.304400    0.062422
N    -0.834434    0.628815   -0.037082   -0.009572    0.086472   -0.017808
C     0.545404    1.268021   -0.275113   -0.146650    0.006820   -0.002186
O    -2.113919   -1.318857    0.224540   -0.000294    0.065308   -0.013734
O     0.564553    2.432041   -0.576404   -0.004959    0.046568   -0.009968
H     2.112842   -1.740587    0.374620   -0.490721   -0.261297    0.076797
H     0.291725   -2.460874    0.497522    0.747711    0.280454   -0.064880
H    -1.495358    0.844139   -0.808829   -0.195863   -0.164317    0.037221
H     2.800829    0.325769   -0.088750    0.499301   -1.498274    0.324323
H    -1.277514    1.055150    0.799758   -0.136713   -0.134137    0.046111
13
* Frequency(23) 1097.3766
C     1.656264    0.303142   -0.064390    0.018923   -0.214096    0.048134
C     1.389451   -0.958408    0.208518   -0.165596    0.062394   -0.021855
N     0.192305   -1.480708    0.323840    0.138229    0.298921   -0.059499
C    -0.994376   -0.926447    0.198528    0.114722   -0.304400    0.062422
N    -0.833564    0.620953   -0.035463   -0.009572    0.086472   -0.017808
C     0.558738    1.267401   -0.274914   -0.146650    0.006820   -0.002186
O    -2.113892   -1.324795    0.225788   -0.000294    0.065308   -0.013734
O     0.565004    2.427807   -0.575498   -0.004959    0.046568   -0.009968
H     2.157459   -1.716830    0.367638   -0.490721   -0.261297    0.076797
H     0.223741   -2.486373    0.503421    0.747711    0.280454   -0.064880
H    -1.477550    0.859078   -0.812214   -0.195863   -0.164317    0.037221
H     2.755431    0.461994   -0.118238    0.499301   -1.498274    0.324323
H    -1.265084    1.067346    0.795566   -0.136713   -0.134137    0.046111
13
* Frequency(23) 1097.3766
C     1.654201    0.326473   -0.069636    0.018923   -0.214096    0.048134
C     1.407497   -0.965207    0.210900   -0.165596    0.062394   -0.021855
N     0.177241   -1.513282    0.330324    0.138229    0.298921   -0.059499
C    -1.006877   -0.893275    0.191725    0.114722   -0.304400    0.062422
N    -0.832521    0.611530   -0.033523   -0.009572    0.086472   -0.017808
C     0.574719    1.266657   -0.274675   -0.146650    0.006820   -0.002186
O    -2.113860   -1.331911    0.227285   -0.000294    0.065308   -0.013734
O     0.565544    2.422732   -0.574412   -0.004959    0.046568   -0.009968
H     2.210934   -1.688355    0.359269   -0.490721   -0.261297    0.076797
H     0.142261   -2.516935    0.510491    0.747711    0.280454   -0.064880
H    -1.456206    0.876985   -0.816270   -0.195863   -0.164317    0.037221
H     2.701021    0.625267   -0.153581    0.499301   -1.498274    0.324323
H    -1.250186    1.081963    0.790541   -0.136713   -0.134137    0.046111
13
* Frequency(23) 1097.3766
C     1.652021    0.351140   -0.075181    0.018923   -0.214096    0.048134
C     1.426576   -0.972396    0.213418   -0.165596    0.062394   -0.021855
N     0.161315   -1.547723    0.337179    0.138229    0.298921   -0.059499
C    -1.020095   -0.858203    0.184533    0.114722   -0.304400    0.062422
N    -0.831418    0.601567   -0.031471   -0.009572    0.086472   -0.017808
C     0.591615    1.265872   -0.274424   -0.146650    0.006820   -0.002186
O    -2.113826   -1.339436    0.228867   -0.000294    0.065308   -0.013734
O     0.566116    2.417367   -0.573263   -0.004959    0.046568   -0.009968
H     2.267473   -1.658250    0.350421   -0.490721   -0.261297    0.076797
H     0.056112   -2.549248    0.517966    0.747711    0.280454   -0.064880
H    -1.433639    0.895917   -0.820558   -0.195863   -0.164317    0.037221
H     2.643493    0.797892   -0.190948    0.499301   -1.498274    0.324323
H    -1.234434    1.097418    0.785228   -0.136713   -0.134137    0.046111
13
* Frequency(23) 1097.3766
C     1.649959    0.374471   -0.080427    0.018923   -0.214096    0.048134
C     1.444622   -0.979196    0.215799   -0.165596    0.062394   -0.021855
N     0.146252   -1.580297    0.343663    0.138229    0.298921   -0.059499
C    -1.032597   -0.825032    0.177731    0.114722   -0.304400    0.062422
N    -0.830375    0.592144   -0.029530   -0.009572    0.086472   -0.017808
C     0.607596    1.265128   -0.274185   -0.146650    0.006820   -0.002186
O    -2.113794   -1.346553    0.230364   -0.000294    0.065308   -0.013734
O     0.566656    2.412292   -0.572177   -0.004959    0.046568   -0.009968
H     2.320949   -1.629775    0.342052   -0.490721   -0.261297    0.076797
H    -0.025368   -2.579810    0.525036    0.747711    0.280454   -0.064880
H    -1.412295    0.913823   -0.824614   -0.195863   -0.164317    0.037221
H     2.589082    0.961164   -0.226291    0.499301   -1.498274    0.324323
H    -1.219536    1.112035    0.780204   -0.136713   -0.134137    0.046111
13
* Frequency(23) 1097.3766
C     1.648239    0.393937   -0.084803    0.018923   -0.214096    0.048134
C     1.459678   -0.984869    0.217787   -0.165596    0.062394   -0.021855
N     0.133684   -1.607476    0.349073    0.138229    0.298921   -0.059499
C    -1.043028   -0.797355    0.172056    0.114722   -0.304400    0.062422
N    -0.829505    0.584281   -0.027911   -0.009572    0.086472   -0.017808
C     0.620930    1.264508   -0.273987   -0.146650    0.006820   -0.002186
O    -2.113768   -1.352491    0.231613   -0.000294    0.065308   -0.013734
O     0.567107    2.408058   -0.571271   -0.004959    0.046568   -0.009968
H     2.365566   -1.606018    0.335069   -0.490721   -0.261297    0.076797
H    -0.093352   -2.605309    0.530935    0.747711    0.280454   -0.064880
H    -1.394487    0.928763   -0.827999   -0.195863   -0.164317    0.037221
H     2.543685    1.097390   -0.255779    0.499301   -1.498274    0.324323
H    -1.207106    1.124231    0.776011   -0.136713   -0.134137    0.046111
13
* Frequency(23) 1097.3766
C     1.647046    0.407429   -0.087836    0.018923   -0.214096    0.048134
C     1.470113   -0.988800    0.219164   -0.165596    0.062394   -0.021855
N     0.124973   -1.626313    0.352823    0.138229    0.298921   -0.059499
C    -1.050257   -0.778173    0.168122    0.114722   -0.304400    0.062422
N    -0.828902    0.578832   -0.026789   -0.009572    0.086472   -0.017808
C     0.630171    1.264078   -0.273849   -0.146650    0.006820   -0.002186
O    -2.113749   -1.356606    0.232478   -0.000294    0.065308   -0.013734
O     0.567419    2.405123   -0.570643   -0.004959    0.046568   -0.009968
H     2.396490   -1.589551    0.330230   -0.490721   -0.261297    0.076797
H    -0.140470   -2.622983    0.535024    0.747711    0.280454   -0.064880
H    -1.382144    0.939117   -0.830344   -0.195863   -0.164317    0.037221
H     2.512220    1.191807   -0.276217    0.499301   -1.498274    0.324323
H    -1.198491    1.132684    0.773105   -0.136713   -0.134137    0.046111
13
* Frequency(23) 1097.3766
C     1.646511    0.413484   -0.089198    0.018923   -0.214096    0.048134
C     1.474797   -0.990565    0.219782   -0.165596    0.062394   -0.021855
N     0.121063   -1.634767    0.354505    0.138229    0.298921   -0.059499
C    -1.053502   -0.769563    0.166356    0.114722   -0.304400    0.062422
N    -0.828631    0.576386   -0.026285   -0.009572    0.086472   -0.017808
C     0.634319    1.263886   -0.273787   -0.146650    0.006820   -0.002186
O    -2.113741   -1.358453    0.232867   -0.000294    0.065308   -0.013734
O     0.567560    2.403806   -0.570361   -0.004959    0.046568   -0.009968
H     2.410370   -1.582161    0.328058   -0.490721   -0.261297    0.076797
H    -0.161619   -2.630915    0.536859    0.747711    0.280454   -0.064880
H    -1.376604    0.943765   -0.831397   -0.195863   -0.164317    0.037221
H     2.498098    1.234184   -0.285390    0.499301   -1.498274    0.324323
H    -1.194624    1.136478    0.771801   -0.136713   -0.134137    0.046111
13
* Frequency(23) 1097.3766
C     1.646691    0.411447   -0.088740    0.018923   -0.214096    0.048134
C     1.473222   -0.989972    0.219574   -0.165596    0.062394   -0.021855
N     0.122379   -1.631923    0.353939    0.138229    0.298921   -0.059499
C    -1.052410   -0.772460    0.166950    0.114722   -0.304400    0.062422
N    -0.828722    0.577209   -0.026455   -0.009572    0.086472   -0.017808
C     0.632924    1.263950   -0.273808   -0.146650    0.006820   -0.002186
O    -2.113744   -1.357832    0.232736   -0.000294    0.065308   -0.013734
O     0.567512    2.404249   -0.570456   -0.004959    0.046568   -0.009968
H     2.405701   -1.584647    0.328788   -0.490721   -0.261297    0.076797
H    -0.154505   -2.628247    0.536241    0.747711    0.280454   -0.064880
H    -1.378468    0.942202   -0.831043   -0.195863   -0.164317    0.037221
H     2.502849    1.219929   -0.282304    0.499301   -1.498274    0.324323
H    -1.195925    1.135202    0.772240   -0.136713   -0.134137    0.046111
13
* Frequency(23) 1097.3766
C     1.647567    0.401538   -0.086512    0.018923   -0.214096    0.048134
C     1.465557   -0.987084    0.218563   -0.165596    0.062394   -0.021855
N     0.128776   -1.618089    0.351186    0.138229    0.298921   -0.059499
C    -1.047101   -0.786548    0.169839    0.114722   -0.304400    0.062422
N    -0.829165    0.581211   -0.027279   -0.009572    0.086472   -0.017808
C     0.626137    1.264266   -0.273909   -0.146650    0.006820   -0.002186
O    -2.113757   -1.354809    0.232100   -0.000294    0.065308   -0.013734
O     0.567283    2.406404   -0.570917   -0.004959    0.046568   -0.009968
H     2.382989   -1.596740    0.332343   -0.490721   -0.261297    0.076797
H    -0.119899   -2.615267    0.533239    0.747711    0.280454   -0.064880
H    -1.387533    0.934597   -0.829320   -0.195863   -0.164317    0.037221
H     2.525957    1.150586   -0.267294    0.499301   -1.498274    0.324323
H    -1.202252    1.128994    0.774374   -0.136713   -0.134137    0.046111
13
* Frequency(23) 1097.3766
C     1.649043    0.384832   -0.082756    0.018923   -0.214096    0.048134
C     1.452635   -0.982215    0.216857   -0.165596    0.062394   -0.021855
N     0.139563   -1.594763    0.346543    0.138229    0.298921   -0.059499
C    -1.038149   -0.810301    0.174710    0.114722   -0.304400    0.062422
N    -0.829912    0.587959   -0.028669   -0.009572    0.086472   -0.017808
C     0.614693    1.264798   -0.274080   -0.146650    0.006820   -0.002186
O    -2.113780   -1.349713    0.231029   -0.000294    0.065308   -0.013734
O     0.566896    2.410038   -0.571695   -0.004959    0.046568   -0.009968
H     2.344696   -1.617130    0.338335   -0.490721   -0.261297    0.076797
H    -0.061552   -2.593382    0.528176    0.747711    0.280454   -0.064880
H    -1.402817    0.921774   -0.826416   -0.195863   -0.164317    0.037221
H     2.564920    1.033670   -0.241986    0.499301   -1.498274    0.324323
H    -1.212920    1.118527    0.777972   -0.136713   -0.134137    0.046111
13
* Frequency(23) 1097.3766
C     1.650961    0.363137   -0.077879    0.018923   -0.214096    0.048134
C     1.435856   -0.975893    0.214643   -0.165596    0.062394   -0.021855
N     0.153569   -1.564473    0.340514    0.138229    0.298921   -0.059499
C    -1.026524   -0.841146    0.181036    0.114722   -0.304400    0.062422
N    -0.830882    0.596721   -0.030473   -0.009572    0.086472   -0.017808
C     0.599833    1.265489   -0.274301   -0.146650    0.006820   -0.002186
O    -2.113810   -1.343095    0.229637   -0.000294    0.065308   -0.013734
O     0.566393    2.414757   -0.572705   -0.004959    0.046568   -0.009968
H     2.294972   -1.643607    0.346117   -0.490721   -0.261297    0.076797
H     0.014213   -2.564964    0.521602    0.747711    0.280454   -0.064880
H    -1.422663    0.905124   -0.822644   -0.195863   -0.164317    0.037221
H     2.615514    0.881850   -0.209122    0.499301   -1.498274    0.324323
H    -1.226773    1.104934    0.782645   -0.136713   -0.134137    0.046111
13
* Frequency(23) 1097.3766
C     1.653111    0.338806   -0.072409    0.018923   -0.214096    0.048134
C     1.417036   -0.968802    0.212159   -0.165596    0.062394   -0.021855
N     0.169278   -1.530502    0.333752    0.138229    0.298921   -0.059499
C    -1.013486   -0.875739    0.188129    0.114722   -0.304400    0.062422
N    -0.831970    0.606548   -0.032497   -0.009572    0.086472   -0.017808
C     0.583167    1.266264   -0.274550   -0.146650    0.006820   -0.002186
O    -2.113843   -1.335674    0.228076   -0.000294    0.065308   -0.013734
O     0.565830    2.420049   -0.573838   -0.004959    0.046568   -0.009968
H     2.239204   -1.673303    0.354845   -0.490721   -0.261297    0.076797
H     0.099186   -2.533091    0.514228    0.747711    0.280454   -0.064880
H    -1.444922    0.886451   -0.818414   -0.195863   -0.164317    0.037221
H     2.672257    0.711579   -0.172265    0.499301   -1.498274    0.324323
H    -1.242310    1.089691    0.787885   -0.136713   -0.134137    0.046111
