13
* (null), Energy   -1000.0000000
C     1.365855    0.533997   -0.017795    0.005027    0.003103   -0.037557
C     1.281863   -0.788655    0.093257    0.003627    0.003831   -0.044381
N    -0.021011   -1.450395    0.118437   -0.001082    0.014756    0.162717
C    -1.289878   -0.622329    0.007801   -0.018873    0.028096    0.361832
N    -1.064188    0.706802   -0.097341    0.001090   -0.011022   -0.089841
C     0.168081    1.391376   -0.119566   -0.002085    0.008852    0.145456
O    -2.334795   -1.198357    0.024143   -0.004202   -0.014312   -0.159944
O     0.193513    2.595440   -0.217241    0.005863   -0.005183   -0.018807
H     2.123010   -1.478478    0.173803    0.018307   -0.048061   -0.645944
H    -0.114939   -2.012404    0.984263    0.195883   -0.824401   -0.367981
H    -1.901448    1.289086   -0.172072    0.036626   -0.098136   -1.167657
H     2.334895    1.034094   -0.036100    0.014916   -0.034662   -0.539478
H    -0.071619   -2.162707   -0.633029   -0.145583    0.739910   -0.522796
13
* Frequency(11)  511.3066
C     1.366426    0.534350   -0.022064    0.005027    0.003103   -0.037557
C     1.282275   -0.788220    0.088213    0.003627    0.003831   -0.044381
N    -0.021134   -1.448718    0.136929   -0.001082    0.014756    0.162717
C    -1.292022   -0.619137    0.048921   -0.018873    0.028096    0.361832
N    -1.064064    0.705549   -0.107551    0.001090   -0.011022   -0.089841
C     0.167844    1.392382   -0.103036   -0.002085    0.008852    0.145456
O    -2.335273   -1.199984    0.005966   -0.004202   -0.014312   -0.159944
O     0.194179    2.594851   -0.219379    0.005863   -0.005183   -0.018807
H     2.125091   -1.483940    0.100395    0.018307   -0.048061   -0.645944
H    -0.092677   -2.106093    0.942444    0.195883   -0.824401   -0.367981
H    -1.897286    1.277933   -0.304771    0.036626   -0.098136   -1.167657
H     2.336590    1.030155   -0.097409    0.014916   -0.034662   -0.539478
H    -0.088164   -2.078620   -0.692442   -0.145583    0.739910   -0.522796
13
* Frequency(11)  511.3066
C     1.366936    0.534664   -0.025869    0.005027    0.003103   -0.037557
C     1.282643   -0.787832    0.083716    0.003627    0.003831   -0.044381
N    -0.021243   -1.447223    0.153417   -0.001082    0.014756    0.162717
C    -1.293935   -0.616290    0.085586   -0.018873    0.028096    0.361832
N    -1.063954    0.704432   -0.116655    0.001090   -0.011022   -0.089841
C     0.167633    1.393279   -0.088297   -0.002085    0.008852    0.145456
O    -2.335698   -1.201434   -0.010241   -0.004202   -0.014312   -0.159944
O     0.194773    2.594326   -0.221284    0.005863   -0.005183   -0.018807
H     2.126946   -1.488810    0.034942    0.018307   -0.048061   -0.645944
H    -0.072829   -2.189629    0.905157    0.195883   -0.824401   -0.367981
H    -1.893574    1.267989   -0.423089    0.036626   -0.098136   -1.167657
H     2.338101    1.026642   -0.152074    0.014916   -0.034662   -0.539478
H    -0.102916   -2.003645   -0.745416   -0.145583    0.739910   -0.522796
13
* Frequency(11)  511.3066
C     1.367328    0.534907   -0.028800    0.005027    0.003103   -0.037557
C     1.282926   -0.787533    0.080253    0.003627    0.003831   -0.044381
N    -0.021328   -1.446072    0.166115   -0.001082    0.014756    0.162717
C    -1.295408   -0.614097    0.113821   -0.018873    0.028096    0.361832
N    -1.063868    0.703572   -0.123665    0.001090   -0.011022   -0.089841
C     0.167470    1.393970   -0.076947   -0.002085    0.008852    0.145456
O    -2.336026   -1.202551   -0.022722   -0.004202   -0.014312   -0.159944
O     0.195231    2.593922   -0.222752    0.005863   -0.005183   -0.018807
H     2.128374   -1.492560   -0.015463    0.018307   -0.048061   -0.645944
H    -0.057543   -2.253960    0.876442    0.195883   -0.824401   -0.367981
H    -1.890716    1.260331   -0.514206    0.036626   -0.098136   -1.167657
H     2.339265    1.023938   -0.194172    0.014916   -0.034662   -0.539478
H    -0.114276   -1.945907   -0.786212   -0.145583    0.739910   -0.522796
13
* Frequency(11)  511.3066
C     1.367561    0.535050   -0.030538    0.005027    0.003103   -0.037557
C     1.283093   -0.787355    0.078199    0.003627    0.003831   -0.044381
N    -0.021378   -1.445389    0.173646   -0.001082    0.014756    0.162717
C    -1.296281   -0.612797    0.130567   -0.018873    0.028096    0.361832
N    -1.063818    0.703062   -0.127823    0.001090   -0.011022   -0.089841
C     0.167374    1.394379   -0.070215   -0.002085    0.008852    0.145456
O    -2.336221   -1.203213   -0.030124   -0.004202   -0.014312   -0.159944
O     0.195502    2.593682   -0.223622    0.005863   -0.005183   -0.018807
H     2.129221   -1.494784   -0.045359    0.018307   -0.048061   -0.645944
H    -0.048477   -2.292115    0.859411    0.195883   -0.824401   -0.367981
H    -1.889021    1.255789   -0.568247    0.036626   -0.098136   -1.167657
H     2.339956    1.022333   -0.219140    0.014916   -0.034662   -0.539478
H    -0.121014   -1.911662   -0.810408   -0.145583    0.739910   -0.522796
13
* Frequency(11)  511.3066
C     1.367608    0.535080   -0.030896    0.005027    0.003103   -0.037557
C     1.283128   -0.787319    0.077776    0.003627    0.003831   -0.044381
N    -0.021388   -1.445248    0.175194   -0.001082    0.014756    0.162717
C    -1.296461   -0.612530    0.134010   -0.018873    0.028096    0.361832
N    -1.063808    0.702957   -0.128678    0.001090   -0.011022   -0.089841
C     0.167354    1.394464   -0.068831   -0.002085    0.008852    0.145456
O    -2.336261   -1.203349   -0.031646   -0.004202   -0.014312   -0.159944
O     0.195558    2.593633   -0.223801    0.005863   -0.005183   -0.018807
H     2.129396   -1.495242   -0.051505    0.018307   -0.048061   -0.645944
H    -0.046614   -2.299959    0.855910    0.195883   -0.824401   -0.367981
H    -1.888673    1.254856   -0.579357    0.036626   -0.098136   -1.167657
H     2.340097    1.022004   -0.224272    0.014916   -0.034662   -0.539478
H    -0.122399   -1.904623   -0.815382   -0.145583    0.739910   -0.522796
13
* Frequency(11)  511.3066
C     1.367466    0.534992   -0.029833    0.005027    0.003103   -0.037557
C     1.283025   -0.787427    0.079032    0.003627    0.003831   -0.044381
N    -0.021358   -1.445666    0.170592   -0.001082    0.014756    0.162717
C    -1.295927   -0.613324    0.123776   -0.018873    0.028096    0.361832
N    -1.063838    0.703269   -0.126137    0.001090   -0.011022   -0.089841
C     0.167413    1.394213   -0.072945   -0.002085    0.008852    0.145456
O    -2.336142   -1.202945   -0.027122   -0.004202   -0.014312   -0.159944
O     0.195392    2.593779   -0.223269    0.005863   -0.005183   -0.018807
H     2.128878   -1.493882   -0.033235    0.018307   -0.048061   -0.645944
H    -0.052154   -2.276642    0.866318    0.195883   -0.824401   -0.367981
H    -1.889709    1.257631   -0.546331    0.036626   -0.098136   -1.167657
H     2.339676    1.022984   -0.209014    0.014916   -0.034662   -0.539478
H    -0.118281   -1.925550   -0.800596   -0.145583    0.739910   -0.522796
13
* Frequency(11)  511.3066
C     1.367149    0.534796   -0.027467    0.005027    0.003103   -0.037557
C     1.282797   -0.787669    0.081828    0.003627    0.003831   -0.044381
N    -0.021289   -1.446595    0.160338   -0.001082    0.014756    0.162717
C    -1.294737   -0.615095    0.100974   -0.018873    0.028096    0.361832
N    -1.063907    0.703964   -0.120476    0.001090   -0.011022   -0.089841
C     0.167544    1.393655   -0.082111   -0.002085    0.008852    0.145456
O    -2.335877   -1.202043   -0.017043   -0.004202   -0.014312   -0.159944
O     0.195022    2.594106   -0.222084    0.005863   -0.005183   -0.018807
H     2.127724   -1.490854    0.007471    0.018307   -0.048061   -0.645944
H    -0.064498   -2.224690    0.889507    0.195883   -0.824401   -0.367981
H    -1.892017    1.263816   -0.472748    0.036626   -0.098136   -1.167657
H     2.338736    1.025168   -0.175017    0.014916   -0.034662   -0.539478
H    -0.109107   -1.972177   -0.767650   -0.145583    0.739910   -0.522796
13
* Frequency(11)  511.3066
C     1.366692    0.534514   -0.024052    0.005027    0.003103   -0.037557
C     1.282467   -0.788017    0.085864    0.003627    0.003831   -0.044381
N    -0.021191   -1.447937    0.145543   -0.001082    0.014756    0.162717
C    -1.293021   -0.617649    0.068076   -0.018873    0.028096    0.361832
N    -1.064006    0.704966   -0.112307    0.001090   -0.011022   -0.089841
C     0.167734    1.392851   -0.095336   -0.002085    0.008852    0.145456
O    -2.335495   -1.200741   -0.002501   -0.004202   -0.014312   -0.159944
O     0.194489    2.594577   -0.220374    0.005863   -0.005183   -0.018807
H     2.126060   -1.486484    0.066201    0.018307   -0.048061   -0.645944
H    -0.082308   -2.149734    0.922965    0.195883   -0.824401   -0.367981
H    -1.895347    1.272738   -0.366583    0.036626   -0.098136   -1.167657
H     2.337379    1.028320   -0.125967    0.014916   -0.034662   -0.539478
H    -0.095870   -2.039451   -0.720117   -0.145583    0.739910   -0.522796
13
* Frequency(11)  511.3066
C     1.366145    0.534176   -0.019959    0.005027    0.003103   -0.037557
C     1.282072   -0.788435    0.090700    0.003627    0.003831   -0.044381
N    -0.021073   -1.449545    0.127811   -0.001082    0.014756    0.162717
C    -1.290965   -0.620711    0.028646   -0.018873    0.028096    0.361832
N    -1.064125    0.706167   -0.102517    0.001090   -0.011022   -0.089841
C     0.167961    1.391886   -0.111187   -0.002085    0.008852    0.145456
O    -2.335037   -1.199182    0.014929   -0.004202   -0.014312   -0.159944
O     0.193851    2.595142   -0.218325    0.005863   -0.005183   -0.018807
H     2.124065   -1.481246    0.136592    0.018307   -0.048061   -0.645944
H    -0.103654   -2.059896    0.963065    0.195883   -0.824401   -0.367981
H    -1.899338    1.283433   -0.239339    0.036626   -0.098136   -1.167657
H     2.335754    1.032097   -0.067178    0.014916   -0.034662   -0.539478
H    -0.080006   -2.120082   -0.663146   -0.145583    0.739910   -0.522796
13
* Frequency(11)  511.3066
C     1.365565    0.533819   -0.015632    0.005027    0.003103   -0.037557
C     1.281654   -0.788876    0.095813    0.003627    0.003831   -0.044381
N    -0.020948   -1.451245    0.109063   -0.001082    0.014756    0.162717
C    -1.288790   -0.623948   -0.013043   -0.018873    0.028096    0.361832
N    -1.064251    0.707437   -0.092166    0.001090   -0.011022   -0.089841
C     0.168201    1.390866   -0.127946   -0.002085    0.008852    0.145456
O    -2.334553   -1.197533    0.033357   -0.004202   -0.014312   -0.159944
O     0.193175    2.595739   -0.216158    0.005863   -0.005183   -0.018807
H     2.121955   -1.475709    0.211015    0.018307   -0.048061   -0.645944
H    -0.126223   -1.964912    1.005462    0.195883   -0.824401   -0.367981
H    -1.903558    1.294739   -0.104806    0.036626   -0.098136   -1.167657
H     2.334036    1.036091   -0.005022    0.014916   -0.034662   -0.539478
H    -0.063232   -2.205331   -0.602911   -0.145583    0.739910   -0.522796
13
* Frequency(11)  511.3066
C     1.365018    0.533480   -0.011539    0.005027    0.003103   -0.037557
C     1.281259   -0.789294    0.100650    0.003627    0.003831   -0.044381
N    -0.020830   -1.452853    0.091332   -0.001082    0.014756    0.162717
C    -1.286734   -0.627010   -0.052473   -0.018873    0.028096    0.361832
N    -1.064369    0.708638   -0.082375    0.001090   -0.011022   -0.089841
C     0.168428    1.389901   -0.143797   -0.002085    0.008852    0.145456
O    -2.334095   -1.195973    0.050787   -0.004202   -0.014312   -0.159944
O     0.192536    2.596304   -0.214108    0.005863   -0.005183   -0.018807
H     2.119960   -1.470472    0.281406    0.018307   -0.048061   -0.645944
H    -0.147569   -1.875074    1.045562    0.195883   -0.824401   -0.367981
H    -1.907549    1.305434    0.022438    0.036626   -0.098136   -1.167657
H     2.332410    1.039868    0.053767    0.014916   -0.034662   -0.539478
H    -0.047368   -2.285962   -0.545940   -0.145583    0.739910   -0.522796
13
* Frequency(11)  511.3066
C     1.364561    0.533198   -0.008124    0.005027    0.003103   -0.037557
C     1.280929   -0.789642    0.104685    0.003627    0.003831   -0.044381
N    -0.020732   -1.454195    0.076537   -0.001082    0.014756    0.162717
C    -1.285018   -0.629564   -0.085372   -0.018873    0.028096    0.361832
N    -1.064469    0.709640   -0.074207    0.001090   -0.011022   -0.089841
C     0.168618    1.389096   -0.157022   -0.002085    0.008852    0.145456
O    -2.333713   -1.194672    0.065329   -0.004202   -0.014312   -0.159944
O     0.192003    2.596775   -0.212398    0.005863   -0.005183   -0.018807
H     2.118296   -1.466102    0.340136    0.018307   -0.048061   -0.645944
H    -0.165379   -1.800118    1.079020    0.195883   -0.824401   -0.367981
H    -1.910879    1.314356    0.128603    0.036626   -0.098136   -1.167657
H     2.331054    1.043020    0.102817    0.014916   -0.034662   -0.539478
H    -0.034131   -2.353236   -0.498407   -0.145583    0.739910   -0.522796
13
* Frequency(11)  511.3066
C     1.364244    0.533003   -0.005758    0.005027    0.003103   -0.037557
C     1.280700   -0.789883    0.107482    0.003627    0.003831   -0.044381
N    -0.020664   -1.455125    0.066283   -0.001082    0.014756    0.162717
C    -1.283828   -0.631335   -0.108174   -0.018873    0.028096    0.361832
N    -1.064537    0.710334   -0.068545    0.001090   -0.011022   -0.089841
C     0.168749    1.388539   -0.166188   -0.002085    0.008852    0.145456
O    -2.333448   -1.193770    0.075409   -0.004202   -0.014312   -0.159944
O     0.191634    2.597101   -0.211213    0.005863   -0.005183   -0.018807
H     2.117142   -1.463073    0.380842    0.018307   -0.048061   -0.645944
H    -0.177723   -1.748166    1.102209    0.195883   -0.824401   -0.367981
H    -1.913187    1.320541    0.202186    0.036626   -0.098136   -1.167657
H     2.330114    1.045204    0.136814    0.014916   -0.034662   -0.539478
H    -0.024957   -2.399863   -0.465462   -0.145583    0.739910   -0.522796
13
* Frequency(11)  511.3066
C     1.364102    0.532915   -0.004695    0.005027    0.003103   -0.037557
C     1.280598   -0.789992    0.108737    0.003627    0.003831   -0.044381
N    -0.020633   -1.455542    0.061681   -0.001082    0.014756    0.162717
C    -1.283294   -0.632129   -0.118408   -0.018873    0.028096    0.361832
N    -1.064568    0.710646   -0.066004    0.001090   -0.011022   -0.089841
C     0.168808    1.388288   -0.170302   -0.002085    0.008852    0.145456
O    -2.333329   -1.193365    0.079933   -0.004202   -0.014312   -0.159944
O     0.191468    2.597248   -0.210681    0.005863   -0.005183   -0.018807
H     2.116624   -1.461714    0.399112    0.018307   -0.048061   -0.645944
H    -0.183263   -1.724849    1.112617    0.195883   -0.824401   -0.367981
H    -1.914223    1.323316    0.235212    0.036626   -0.098136   -1.167657
H     2.329692    1.046184    0.152073    0.014916   -0.034662   -0.539478
H    -0.020839   -2.420790   -0.450675   -0.145583    0.739910   -0.522796
13
* Frequency(11)  511.3066
C     1.364149    0.532944   -0.005053    0.005027    0.003103   -0.037557
C     1.280632   -0.789955    0.108315    0.003627    0.003831   -0.044381
N    -0.020643   -1.455402    0.063229   -0.001082    0.014756    0.162717
C    -1.283474   -0.631862   -0.114965   -0.018873    0.028096    0.361832
N    -1.064558    0.710541   -0.066859    0.001090   -0.011022   -0.089841
C     0.168788    1.388372   -0.168918   -0.002085    0.008852    0.145456
O    -2.333369   -1.193501    0.078411   -0.004202   -0.014312   -0.159944
O     0.191524    2.597199   -0.210860    0.005863   -0.005183   -0.018807
H     2.116799   -1.462171    0.392966    0.018307   -0.048061   -0.645944
H    -0.181400   -1.732693    1.109116    0.195883   -0.824401   -0.367981
H    -1.913875    1.322383    0.224102    0.036626   -0.098136   -1.167657
H     2.329834    1.045855    0.146940    0.014916   -0.034662   -0.539478
H    -0.022224   -2.413751   -0.455649   -0.145583    0.739910   -0.522796
13
* Frequency(11)  511.3066
C     1.364382    0.533088   -0.006791    0.005027    0.003103   -0.037557
C     1.280800   -0.789778    0.106261    0.003627    0.003831   -0.044381
N    -0.020693   -1.454719    0.070760   -0.001082    0.014756    0.162717
C    -1.284348   -0.630562   -0.098219   -0.018873    0.028096    0.361832
N    -1.064507    0.710031   -0.071017    0.001090   -0.011022   -0.089841
C     0.168692    1.388782   -0.162186   -0.002085    0.008852    0.145456
O    -2.333564   -1.194163    0.071008   -0.004202   -0.014312   -0.159944
O     0.191795    2.596959   -0.211730    0.005863   -0.005183   -0.018807
H     2.117646   -1.464395    0.363070    0.018307   -0.048061   -0.645944
H    -0.172334   -1.770848    1.092085    0.195883   -0.824401   -0.367981
H    -1.912180    1.317841    0.170061    0.036626   -0.098136   -1.167657
H     2.330524    1.044250    0.121972    0.014916   -0.034662   -0.539478
H    -0.028962   -2.379506   -0.479845   -0.145583    0.739910   -0.522796
13
* Frequency(11)  511.3066
C     1.364774    0.533330   -0.009722    0.005027    0.003103   -0.037557
C     1.281083   -0.789479    0.102797    0.003627    0.003831   -0.044381
N    -0.020778   -1.453567    0.083457   -0.001082    0.014756    0.162717
C    -1.285820   -0.628369   -0.069984   -0.018873    0.028096    0.361832
N    -1.064422    0.709171   -0.078028    0.001090   -0.011022   -0.089841
C     0.168529    1.389473   -0.150836   -0.002085    0.008852    0.145456
O    -2.333892   -1.195280    0.058527   -0.004202   -0.014312   -0.159944
O     0.192252    2.596554   -0.213198    0.005863   -0.005183   -0.018807
H     2.119074   -1.468146    0.312665    0.018307   -0.048061   -0.645944
H    -0.157048   -1.835179    1.063370    0.195883   -0.824401   -0.367981
H    -1.909322    1.310183    0.078944    0.036626   -0.098136   -1.167657
H     2.331688    1.041546    0.079874    0.014916   -0.034662   -0.539478
H    -0.040322   -2.321768   -0.520641   -0.145583    0.739910   -0.522796
13
* Frequency(11)  511.3066
C     1.365284    0.533645   -0.013527    0.005027    0.003103   -0.037557
C     1.281451   -0.789091    0.098300    0.003627    0.003831   -0.044381
N    -0.020888   -1.452072    0.099945   -0.001082    0.014756    0.162717
C    -1.287733   -0.625522   -0.033319   -0.018873    0.028096    0.361832
N    -1.064312    0.708054   -0.087131    0.001090   -0.011022   -0.089841
C     0.168318    1.390370   -0.136097   -0.002085    0.008852    0.145456
O    -2.334317   -1.196731    0.042320   -0.004202   -0.014312   -0.159944
O     0.192847    2.596029   -0.215104    0.005863   -0.005183   -0.018807
H     2.120929   -1.473016    0.247212    0.018307   -0.048061   -0.645944
H    -0.137200   -1.918715    1.026082    0.195883   -0.824401   -0.367981
H    -1.905610    1.300239   -0.039374    0.036626   -0.098136   -1.167657
H     2.333200    1.038033    0.025209    0.014916   -0.034662   -0.539478
H    -0.055074   -2.246793   -0.573616   -0.145583    0.739910   -0.522796
13
* Frequency(11)  511.3066
C     1.365855    0.533997   -0.017795    0.005027    0.003103   -0.037557
C     1.281863   -0.788655    0.093257    0.003627    0.003831   -0.044381
N    -0.021011   -1.450395    0.118437   -0.001082    0.014756    0.162717
C    -1.289878   -0.622329    0.007801   -0.018873    0.028096    0.361832
N    -1.064188    0.706802   -0.097341    0.001090   -0.011022   -0.089841
C     0.168081    1.391376   -0.119566   -0.002085    0.008852    0.145456
O    -2.334795   -1.198357    0.024143   -0.004202   -0.014312   -0.159944
O     0.193513    2.595440   -0.217241    0.005863   -0.005183   -0.018807
H     2.123010   -1.478478    0.173803    0.018307   -0.048061   -0.645944
H    -0.114939   -2.012404    0.984263    0.195883   -0.824401   -0.367981
H    -1.901448    1.289086   -0.172072    0.036626   -0.098136   -1.167657
H     2.334895    1.034094   -0.036100    0.014916   -0.034662   -0.539478
H    -0.071619   -2.162707   -0.633029   -0.145583    0.739910   -0.522796
