13
* (null), Energy   -1000.0000000
C     1.653111    0.338806   -0.072409   -0.085845    0.193199   -0.042768
C     1.417036   -0.968802    0.212159   -0.008714   -0.028583    0.003139
N     0.169278   -1.530502    0.333752   -0.241348    0.024012   -0.006354
C    -1.013486   -0.875739    0.188129    1.204438    0.312514   -0.014304
N    -0.831970    0.606548   -0.032497   -0.103542    0.020825   -0.009191
C     0.583167    1.266264   -0.274550    0.209727   -0.949538    0.235534
O    -2.113843   -1.335674    0.228076   -0.689851   -0.282144    0.024523
O     0.565830    2.420049   -0.573838   -0.022915    0.589115   -0.151844
H     2.239204   -1.673303    0.354845    0.055318    0.059186   -0.008864
H     0.099186   -2.533091    0.514228    0.524155   -0.053923    0.015326
H    -1.444922    0.886451   -0.818414   -0.138331    0.203854    0.012604
H     2.672257    0.711579   -0.172265    0.044056   -0.183756    0.050216
H    -1.242310    1.089691    0.787885   -0.103625    0.108393    0.003676
13
* Frequency(33) 1913.4195
C     1.643355    0.360762   -0.077269   -0.085845    0.193199   -0.042768
C     1.416046   -0.972050    0.212516   -0.008714   -0.028583    0.003139
N     0.141850   -1.527774    0.333030   -0.241348    0.024012   -0.006354
C    -0.876608   -0.840224    0.186504    1.204438    0.312514   -0.014304
N    -0.843737    0.608915   -0.033541   -0.103542    0.020825   -0.009191
C     0.607002    1.158354   -0.247782    0.209727   -0.949538    0.235534
O    -2.192241   -1.367738    0.230863   -0.689851   -0.282144    0.024523
O     0.563226    2.486999   -0.591094   -0.022915    0.589115   -0.151844
H     2.245490   -1.666576    0.353837    0.055318    0.059186   -0.008864
H     0.158754   -2.539220    0.515970    0.524155   -0.053923    0.015326
H    -1.460643    0.909618   -0.816982   -0.138331    0.203854    0.012604
H     2.677264    0.690696   -0.166558    0.044056   -0.183756    0.050216
H    -1.254087    1.102009    0.788303   -0.103625    0.108393    0.003676
13
* Frequency(33) 1913.4195
C     1.634657    0.380339   -0.081603   -0.085845    0.193199   -0.042768
C     1.415163   -0.974946    0.212834   -0.008714   -0.028583    0.003139
N     0.117395   -1.525340    0.332386   -0.241348    0.024012   -0.006354
C    -0.754563   -0.808557    0.185054    1.204438    0.312514   -0.014304
N    -0.854228    0.611025   -0.034473   -0.103542    0.020825   -0.009191
C     0.628253    1.062138   -0.223916    0.209727   -0.949538    0.235534
O    -2.262144   -1.396327    0.233348   -0.689851   -0.282144    0.024523
O     0.560904    2.546694   -0.606480   -0.022915    0.589115   -0.151844
H     2.251096   -1.660579    0.352939    0.055318    0.059186   -0.008864
H     0.211866   -2.544684    0.517523    0.524155   -0.053923    0.015326
H    -1.474660    0.930274   -0.815705   -0.138331    0.203854    0.012604
H     2.681728    0.672076   -0.161469    0.044056   -0.183756    0.050216
H    -1.264587    1.112992    0.788675   -0.103625    0.108393    0.003676
13
* Frequency(33) 1913.4195
C     1.627958    0.395415   -0.084940   -0.085845    0.193199   -0.042768
C     1.414483   -0.977177    0.213079   -0.008714   -0.028583    0.003139
N     0.098561   -1.523467    0.331890   -0.241348    0.024012   -0.006354
C    -0.660576   -0.784170    0.183938    1.204438    0.312514   -0.014304
N    -0.862308    0.612650   -0.035190   -0.103542    0.020825   -0.009191
C     0.644619    0.988042   -0.205536    0.209727   -0.949538    0.235534
O    -2.315976   -1.418344    0.235262   -0.689851   -0.282144    0.024523
O     0.559116    2.592665   -0.618329   -0.022915    0.589115   -0.151844
H     2.255412   -1.655961    0.352248    0.055318    0.059186   -0.008864
H     0.252768   -2.548891    0.518719    0.524155   -0.053923    0.015326
H    -1.485454    0.946181   -0.814721   -0.138331    0.203854    0.012604
H     2.685166    0.657737   -0.157551    0.044056   -0.183756    0.050216
H    -1.272673    1.121450    0.788962   -0.103625    0.108393    0.003676
13
* Frequency(33) 1913.4195
C     1.623985    0.404357   -0.086919   -0.085845    0.193199   -0.042768
C     1.414080   -0.978500    0.213224   -0.008714   -0.028583    0.003139
N     0.087391   -1.522355    0.331596   -0.241348    0.024012   -0.006354
C    -0.604832   -0.769706    0.183276    1.204438    0.312514   -0.014304
N    -0.867100    0.613614   -0.035615   -0.103542    0.020825   -0.009191
C     0.654326    0.944096   -0.194635    0.209727   -0.949538    0.235534
O    -2.347903   -1.431402    0.236397   -0.689851   -0.282144    0.024523
O     0.558055    2.619930   -0.625357   -0.022915    0.589115   -0.151844
H     2.257973   -1.653221    0.351837    0.055318    0.059186   -0.008864
H     0.277027   -2.551387    0.519428    0.524155   -0.053923    0.015326
H    -1.491857    0.955616   -0.814138   -0.138331    0.203854    0.012604
H     2.687205    0.649233   -0.155227    0.044056   -0.183756    0.050216
H    -1.277469    1.126467    0.789132   -0.103625    0.108393    0.003676
13
* Frequency(33) 1913.4195
C     1.623168    0.406195   -0.087326   -0.085845    0.193199   -0.042768
C     1.413997   -0.978772    0.213254   -0.008714   -0.028583    0.003139
N     0.085095   -1.522127    0.331535   -0.241348    0.024012   -0.006354
C    -0.593373   -0.766733    0.183140    1.204438    0.312514   -0.014304
N    -0.868086    0.613812   -0.035703   -0.103542    0.020825   -0.009191
C     0.656321    0.935061   -0.192394    0.209727   -0.949538    0.235534
O    -2.354467   -1.434087    0.236630   -0.689851   -0.282144    0.024523
O     0.557837    2.625535   -0.626802   -0.022915    0.589115   -0.151844
H     2.258499   -1.652658    0.351753    0.055318    0.059186   -0.008864
H     0.282014   -2.551900    0.519574    0.524155   -0.053923    0.015326
H    -1.493173    0.957556   -0.814018   -0.138331    0.203854    0.012604
H     2.687624    0.647484   -0.154749    0.044056   -0.183756    0.050216
H    -1.278455    1.127498    0.789167   -0.103625    0.108393    0.003676
13
* Frequency(33) 1913.4195
C     1.625596    0.400731   -0.086117   -0.085845    0.193199   -0.042768
C     1.414244   -0.977963    0.213165   -0.008714   -0.028583    0.003139
N     0.091921   -1.522806    0.331715   -0.241348    0.024012   -0.006354
C    -0.627439   -0.775572    0.183545    1.204438    0.312514   -0.014304
N    -0.865157    0.613223   -0.035443   -0.103542    0.020825   -0.009191
C     0.650389    0.961918   -0.199056    0.209727   -0.949538    0.235534
O    -2.334955   -1.426107    0.235936   -0.689851   -0.282144    0.024523
O     0.558485    2.608873   -0.622507   -0.022915    0.589115   -0.151844
H     2.256934   -1.654332    0.352004    0.055318    0.059186   -0.008864
H     0.267189   -2.550375    0.519141    0.524155   -0.053923    0.015326
H    -1.489260    0.951790   -0.814374   -0.138331    0.203854    0.012604
H     2.686378    0.652682   -0.156169    0.044056   -0.183756    0.050216
H    -1.275524    1.124433    0.789063   -0.103625    0.108393    0.003676
13
* Frequency(33) 1913.4195
C     1.631006    0.388556   -0.083422   -0.085845    0.193199   -0.042768
C     1.414793   -0.976162    0.212967   -0.008714   -0.028583    0.003139
N     0.107130   -1.524319    0.332116   -0.241348    0.024012   -0.006354
C    -0.703339   -0.795266    0.184446    1.204438    0.312514   -0.014304
N    -0.858632    0.611911   -0.034863   -0.103542    0.020825   -0.009191
C     0.637173    1.021755   -0.213899    0.209727   -0.949538    0.235534
O    -2.291482   -1.408327    0.234391   -0.689851   -0.282144    0.024523
O     0.559929    2.571748   -0.612938   -0.022915    0.589115   -0.151844
H     2.253448   -1.658062    0.352562    0.055318    0.059186   -0.008864
H     0.234158   -2.546977    0.518175    0.524155   -0.053923    0.015326
H    -1.480543    0.938944   -0.815169   -0.138331    0.203854    0.012604
H     2.683601    0.664262   -0.159334    0.044056   -0.183756    0.050216
H    -1.268994    1.117602    0.788831   -0.103625    0.108393    0.003676
13
* Frequency(33) 1913.4195
C     1.638811    0.370990   -0.079533   -0.085845    0.193199   -0.042768
C     1.415585   -0.973563    0.212682   -0.008714   -0.028583    0.003139
N     0.129074   -1.526502    0.332693   -0.241348    0.024012   -0.006354
C    -0.812849   -0.823680    0.185747    1.204438    0.312514   -0.014304
N    -0.849218    0.610017   -0.034028   -0.103542    0.020825   -0.009191
C     0.618104    1.108089   -0.235314    0.209727   -0.949538    0.235534
O    -2.228760   -1.382674    0.232161   -0.689851   -0.282144    0.024523
O     0.562013    2.518185   -0.599132   -0.022915    0.589115   -0.151844
H     2.248419   -1.663443    0.353368    0.055318    0.059186   -0.008864
H     0.186501   -2.542074    0.516781    0.524155   -0.053923    0.015326
H    -1.467966    0.920409   -0.816314   -0.138331    0.203854    0.012604
H     2.679596    0.680969   -0.163899    0.044056   -0.183756    0.050216
H    -1.259572    1.107747    0.788497   -0.103625    0.108393    0.003676
13
* Frequency(33) 1913.4195
C     1.648166    0.349936   -0.074872   -0.085845    0.193199   -0.042768
C     1.416534   -0.970448    0.212340   -0.008714   -0.028583    0.003139
N     0.155375   -1.529119    0.333386   -0.241348    0.024012   -0.006354
C    -0.944101   -0.857736    0.187305    1.204438    0.312514   -0.014304
N    -0.837934    0.607748   -0.033026   -0.103542    0.020825   -0.009191
C     0.595249    1.211563   -0.260981    0.209727   -0.949538    0.235534
O    -2.153584   -1.351927    0.229489   -0.689851   -0.282144    0.024523
O     0.564510    2.453987   -0.582585   -0.022915    0.589115   -0.151844
H     2.242391   -1.669893    0.354334    0.055318    0.059186   -0.008864
H     0.129382   -2.536198    0.515111    0.524155   -0.053923    0.015326
H    -1.452891    0.898194   -0.817688   -0.138331    0.203854    0.012604
H     2.674795    0.700993   -0.169372    0.044056   -0.183756    0.050216
H    -1.248280    1.095935    0.788097   -0.103625    0.108393    0.003676
13
* Frequency(33) 1913.4195
C     1.658057    0.327677   -0.069945   -0.085845    0.193199   -0.042768
C     1.417538   -0.967155    0.211978   -0.008714   -0.028583    0.003139
N     0.183182   -1.531886    0.334118   -0.241348    0.024012   -0.006354
C    -1.082872   -0.893743    0.188954    1.204438    0.312514   -0.014304
N    -0.826005    0.605349   -0.031967   -0.103542    0.020825   -0.009191
C     0.571085    1.320966   -0.288118    0.209727   -0.949538    0.235534
O    -2.074102   -1.319420    0.226664   -0.689851   -0.282144    0.024523
O     0.567150    2.386111   -0.565090   -0.022915    0.589115   -0.151844
H     2.236017   -1.676712    0.355355    0.055318    0.059186   -0.008864
H     0.068991   -2.529985    0.513345    0.524155   -0.053923    0.015326
H    -1.436953    0.874707   -0.819140   -0.138331    0.203854    0.012604
H     2.669719    0.722165   -0.175157    0.044056   -0.183756    0.050216
H    -1.236341    1.083446    0.787673   -0.103625    0.108393    0.003676
13
* Frequency(33) 1913.4195
C     1.667411    0.306623   -0.065284   -0.085845    0.193199   -0.042768
C     1.418488   -0.964040    0.211636   -0.008714   -0.028583    0.003139
N     0.209482   -1.534502    0.334810   -0.241348    0.024012   -0.006354
C    -1.214123   -0.927799    0.190512    1.204438    0.312514   -0.014304
N    -0.814721    0.603079   -0.030966   -0.103542    0.020825   -0.009191
C     0.548230    1.424440   -0.313785    0.209727   -0.949538    0.235534
O    -1.998927   -1.288674    0.223991   -0.689851   -0.282144    0.024523
O     0.569647    2.321914   -0.548543   -0.022915    0.589115   -0.151844
H     2.229989   -1.683162    0.356321    0.055318    0.059186   -0.008864
H     0.011872   -2.524109    0.511675    0.524155   -0.053923    0.015326
H    -1.421879    0.852492   -0.820514   -0.138331    0.203854    0.012604
H     2.664918    0.742190   -0.180630    0.044056   -0.183756    0.050216
H    -1.225048    1.071634    0.787273   -0.103625    0.108393    0.003676
13
* Frequency(33) 1913.4195
C     1.675217    0.289057   -0.061396   -0.085845    0.193199   -0.042768
C     1.419280   -0.961442    0.211350   -0.008714   -0.028583    0.003139
N     0.231426   -1.536686    0.335388   -0.241348    0.024012   -0.006354
C    -1.323633   -0.956213    0.191813    1.204438    0.312514   -0.014304
N    -0.805307    0.601186   -0.030130   -0.103542    0.020825   -0.009191
C     0.529162    1.510774   -0.335200    0.209727   -0.949538    0.235534
O    -1.936204   -1.263021    0.221761   -0.689851   -0.282144    0.024523
O     0.571731    2.268350   -0.534737   -0.022915    0.589115   -0.151844
H     2.224959   -1.688543    0.357127    0.055318    0.059186   -0.008864
H    -0.035785   -2.519206    0.510282    0.524155   -0.053923    0.015326
H    -1.409302    0.833958   -0.821660   -0.138331    0.203854    0.012604
H     2.660912    0.758897   -0.185195    0.044056   -0.183756    0.050216
H    -1.215627    1.061779    0.786938   -0.103625    0.108393    0.003676
13
* Frequency(33) 1913.4195
C     1.680626    0.276882   -0.058700   -0.085845    0.193199   -0.042768
C     1.419829   -0.959640    0.211153   -0.008714   -0.028583    0.003139
N     0.246635   -1.538199    0.335788   -0.241348    0.024012   -0.006354
C    -1.399534   -0.975907    0.192714    1.204438    0.312514   -0.014304
N    -0.798782    0.599873   -0.029551   -0.103542    0.020825   -0.009191
C     0.515945    1.570611   -0.350043    0.209727   -0.949538    0.235534
O    -1.892732   -1.245241    0.220216   -0.689851   -0.282144    0.024523
O     0.573175    2.231226   -0.525169   -0.022915    0.589115   -0.151844
H     2.221473   -1.692273    0.357686    0.055318    0.059186   -0.008864
H    -0.068816   -2.515808    0.509316    0.524155   -0.053923    0.015326
H    -1.400584    0.821111   -0.822454   -0.138331    0.203854    0.012604
H     2.658136    0.770477   -0.188360    0.044056   -0.183756    0.050216
H    -1.209096    1.054948    0.786707   -0.103625    0.108393    0.003676
13
* Frequency(33) 1913.4195
C     1.683054    0.271418   -0.057491   -0.085845    0.193199   -0.042768
C     1.420076   -0.958832    0.211064   -0.008714   -0.028583    0.003139
N     0.253462   -1.538878    0.335968   -0.241348    0.024012   -0.006354
C    -1.433600   -0.984746    0.193119    1.204438    0.312514   -0.014304
N    -0.795854    0.599284   -0.029291   -0.103542    0.020825   -0.009191
C     0.510013    1.597468   -0.356705    0.209727   -0.949538    0.235534
O    -1.873220   -1.237261    0.219522   -0.689851   -0.282144    0.024523
O     0.573823    2.214563   -0.520874   -0.022915    0.589115   -0.151844
H     2.219909   -1.693947    0.357937    0.055318    0.059186   -0.008864
H    -0.083641   -2.514283    0.508883    0.524155   -0.053923    0.015326
H    -1.396672    0.815346   -0.822810   -0.138331    0.203854    0.012604
H     2.656890    0.775674   -0.189780    0.044056   -0.183756    0.050216
H    -1.206165    1.051883    0.786603   -0.103625    0.108393    0.003676
13
* Frequency(33) 1913.4195
C     1.682238    0.273256   -0.057898   -0.085845    0.193199   -0.042768
C     1.419993   -0.959104    0.211094   -0.008714   -0.028583    0.003139
N     0.251165   -1.538649    0.335908   -0.241348    0.024012   -0.006354
C    -1.422140   -0.981772    0.192983    1.204438    0.312514   -0.014304
N    -0.796839    0.599482   -0.029378   -0.103542    0.020825   -0.009191
C     0.512009    1.588433   -0.354464    0.209727   -0.949538    0.235534
O    -1.879784   -1.239945    0.219756   -0.689851   -0.282144    0.024523
O     0.573605    2.220168   -0.522319   -0.022915    0.589115   -0.151844
H     2.220435   -1.693384    0.357852    0.055318    0.059186   -0.008864
H    -0.078654   -2.514796    0.509028    0.524155   -0.053923    0.015326
H    -1.397988    0.817285   -0.822690   -0.138331    0.203854    0.012604
H     2.657309    0.773926   -0.189303    0.044056   -0.183756    0.050216
H    -1.207151    1.052914    0.786638   -0.103625    0.108393    0.003676
13
* Frequency(33) 1913.4195
C     1.678265    0.282198   -0.059877   -0.085845    0.193199   -0.042768
C     1.419590   -0.960427    0.211239   -0.008714   -0.028583    0.003139
N     0.239995   -1.537538    0.335614   -0.241348    0.024012   -0.006354
C    -1.366397   -0.967309    0.192321    1.204438    0.312514   -0.014304
N    -0.801631    0.600446   -0.029804   -0.103542    0.020825   -0.009191
C     0.521715    1.544487   -0.343563    0.209727   -0.949538    0.235534
O    -1.911711   -1.253003    0.220891   -0.689851   -0.282144    0.024523
O     0.572544    2.247434   -0.529346   -0.022915    0.589115   -0.151844
H     2.222995   -1.690644    0.357442    0.055318    0.059186   -0.008864
H    -0.054395   -2.517291    0.509738    0.524155   -0.053923    0.015326
H    -1.404390    0.826720   -0.822107   -0.138331    0.203854    0.012604
H     2.659348    0.765421   -0.186978    0.044056   -0.183756    0.050216
H    -1.211947    1.057931    0.786808   -0.103625    0.108393    0.003676
13
* Frequency(33) 1913.4195
C     1.671566    0.297274   -0.063214   -0.085845    0.193199   -0.042768
C     1.418910   -0.962657    0.211484   -0.008714   -0.028583    0.003139
N     0.221162   -1.535664    0.335118   -0.241348    0.024012   -0.006354
C    -1.272410   -0.942922    0.191205    1.204438    0.312514   -0.014304
N    -0.809711    0.602071   -0.030521   -0.103542    0.020825   -0.009191
C     0.538081    1.470391   -0.325183    0.209727   -0.949538    0.235534
O    -1.965543   -1.275020    0.222804   -0.689851   -0.282144    0.024523
O     0.570756    2.293405   -0.541195   -0.022915    0.589115   -0.151844
H     2.227312   -1.686026    0.356750    0.055318    0.059186   -0.008864
H    -0.013493   -2.521499    0.510934    0.524155   -0.053923    0.015326
H    -1.415185    0.842627   -0.821124   -0.138331    0.203854    0.012604
H     2.662786    0.751082   -0.183060    0.044056   -0.183756    0.050216
H    -1.220034    1.066389    0.787095   -0.103625    0.108393    0.003676
13
* Frequency(33) 1913.4195
C     1.662867    0.316850   -0.067548   -0.085845    0.193199   -0.042768
C     1.418027   -0.965554    0.211802   -0.008714   -0.028583    0.003139
N     0.196706   -1.533231    0.334474   -0.241348    0.024012   -0.006354
C    -1.150364   -0.911255    0.189755    1.204438    0.312514   -0.014304
N    -0.820203    0.604182   -0.031452   -0.103542    0.020825   -0.009191
C     0.559333    1.374175   -0.301317    0.209727   -0.949538    0.235534
O    -2.035445   -1.303609    0.225289   -0.689851   -0.282144    0.024523
O     0.568434    2.353099   -0.556581   -0.022915    0.589115   -0.151844
H     2.232917   -1.680029    0.355852    0.055318    0.059186   -0.008864
H     0.039619   -2.526963    0.512487    0.524155   -0.053923    0.015326
H    -1.429202    0.863284   -0.819846   -0.138331    0.203854    0.012604
H     2.667250    0.732462   -0.177971    0.044056   -0.183756    0.050216
H    -1.230534    1.077372    0.787467   -0.103625    0.108393    0.003676
13
* Frequency(33) 1913.4195
C     1.653111    0.338806   -0.072409   -0.085845    0.193199   -0.042768
C     1.417036   -0.968802    0.212159   -0.008714   -0.028583    0.003139
N     0.169278   -1.530502    0.333752   -0.241348    0.024012   -0.006354
C    -1.013486   -0.875739    0.188129    1.204438    0.312514   -0.014304
N    -0.831970    0.606548   -0.032497   -0.103542    0.020825   -0.009191
C     0.583167    1.266264   -0.274550    0.209727   -0.949538    0.235534
O    -2.113843   -1.335674    0.228076   -0.689851   -0.282144    0.024523
O     0.565830    2.420049   -0.573838   -0.022915    0.589115   -0.151844
H     2.239204   -1.673303    0.354845    0.055318    0.059186   -0.008864
H     0.099186   -2.533091    0.514228    0.524155   -0.053923    0.015326
H    -1.444922    0.886451   -0.818414   -0.138331    0.203854    0.012604
H     2.672257    0.711579   -0.172265    0.044056   -0.183756    0.050216
H    -1.242310    1.089691    0.787885   -0.103625    0.108393    0.003676
