13
Coordinates from ORCA-job Uracil_1 E -414.682451001108
  C       1.425950      0.545790     -0.066210
  C       1.232020     -0.750830      0.193710
  N      -0.033500     -1.262230      0.321390
  C      -1.160350     -0.508530      0.201030
  N      -1.036840      0.838310     -0.053870
  C       0.225800      1.379600     -0.203890
  O      -2.308470     -0.882690      0.296130
  O       0.221860      2.567000     -0.447220
  H       2.058780     -1.449560      0.312010
  H      -0.166660     -2.254330      0.513970
  H      -1.626710      1.097860     -0.842120
  H       2.399750      1.005040     -0.180050
  H      -1.548490      1.360770      0.654920
13
Coordinates from ORCA-job Uracil_1 E -414.708330285830
  C       1.423840      0.570655     -0.071011
  C       1.212112     -0.741228      0.192010
  N      -0.053481     -1.279758      0.325210
  C      -1.200948     -0.568124      0.213284
  N      -1.045232      0.850750     -0.054616
  C       0.277448      1.445316     -0.218140
  O      -2.327034     -1.000638      0.317969
  O       0.312369      2.634388     -0.463547
  H       2.036503     -1.446238      0.311646
  H      -0.163956     -2.274853      0.518595
  H      -1.640155      1.107277     -0.868972
  H       2.412256      1.008686     -0.181648
  H      -1.560581      1.379968      0.679020
13
Coordinates from ORCA-job Uracil_1 E -414.714375281203
  C       1.414864      0.582309     -0.072835
  C       1.197005     -0.733083      0.190177
  N      -0.061631     -1.281858      0.326427
  C      -1.225353     -0.598311      0.219319
  N      -1.048218      0.856257     -0.054004
  C       0.308906      1.484831     -0.225371
  O      -2.333941     -1.044259      0.324985
  O       0.339317      2.664032     -0.469505
  H       2.017496     -1.442931      0.310201
  H      -0.154999     -2.278896      0.521268
  H      -1.630999      1.099895     -0.880395
  H       2.414101      1.000029     -0.181552
  H      -1.553408      1.378184      0.691085
13
Coordinates from ORCA-job Uracil_1 E -414.716000493403
  C       1.411683      0.586932     -0.074332
  C       1.188351     -0.727321      0.189268
  N      -0.063738     -1.281323      0.326919
  C      -1.241130     -0.615351      0.221389
  N      -1.053779      0.860079     -0.053403
  C       0.329565      1.510902     -0.230988
  O      -2.342793     -1.061181      0.325931
  O       0.342661      2.683582     -0.471454
  H       2.006370     -1.439704      0.309932
  H      -0.143526     -2.279405      0.524290
  H      -1.623848      1.091842     -0.887854
  H       2.420436      0.984042     -0.181214
  H      -1.547113      1.373106      0.701317
13
Coordinates from ORCA-job Uracil_1 E -414.716257521821
  C       1.412971      0.587989     -0.075075
  C       1.185361     -0.724628      0.188802
  N      -0.064108     -1.280652      0.327362
  C      -1.245278     -0.619262      0.222354
  N      -1.058094      0.860620     -0.052743
  C       0.337554      1.519426     -0.232178
  O      -2.347438     -1.062550      0.324202
  O       0.337932      2.690129     -0.471857
  H       2.003468     -1.436943      0.309334
  H      -0.138551     -2.278989      0.525742
  H      -1.621554      1.087390     -0.891255
  H       2.426445      0.973753     -0.181035
  H      -1.545569      1.369917      0.706148
13
Coordinates from ORCA-job Uracil_1 E -414.716338234332
  C       1.414762      0.588636     -0.075759
  C       1.183662     -0.723033      0.188362
  N      -0.064662     -1.280223      0.327567
  C      -1.245807     -0.619105      0.222123
  N      -1.061209      0.859481     -0.052380
  C       0.341496      1.522091     -0.233096
  O      -2.349356     -1.060789      0.323098
  O       0.333341      2.692395     -0.470945
  H       2.002792     -1.434262      0.308748
  H      -0.136905     -2.278503      0.526915
  H      -1.621083      1.084483     -0.893023
  H       2.430990      0.967391     -0.180490
  H      -1.544882      1.367640      0.708679
13
Coordinates from ORCA-job Uracil_1 E -414.716363963084
  C       1.416043      0.589164     -0.076197
  C       1.182574     -0.722207      0.188371
  N      -0.065252     -1.279993      0.327413
  C      -1.245280     -0.617278      0.221718
  N      -1.063268      0.857746     -0.051387
  C       0.343412      1.522407     -0.233974
  O      -2.349621     -1.059491      0.321828
  O       0.330391      2.692380     -0.471737
  H       2.002979     -1.431993      0.308961
  H      -0.136859     -2.278304      0.526665
  H      -1.621375      1.083239     -0.892846
  H       2.433787      0.963951     -0.179572
  H      -1.544392      1.366578      0.710557
13
Coordinates from ORCA-job Uracil_1 E -414.716373328197
  C       1.416486      0.589473     -0.076294
  C       1.182046     -0.722086      0.188650
  N      -0.065604     -1.279778      0.327479
  C      -1.244880     -0.615481      0.221187
  N      -1.064160      0.856214     -0.050635
  C       0.344130      1.522341     -0.233879
  O      -2.348987     -1.059742      0.321020
  O       0.329487      2.691942     -0.472707
  H       2.003300     -1.430935      0.309140
  H      -0.137492     -2.278113      0.526331
  H      -1.621594      1.083265     -0.892095
  H       2.434768      0.962735     -0.179506
  H      -1.544359      1.366365      0.711110
13
Coordinates from ORCA-job Uracil_1 E -414.716376979820
  C       1.416418      0.589543     -0.076180
  C       1.181927     -0.722312      0.188863
  N      -0.065646     -1.279637      0.327415
  C      -1.244948     -0.614523      0.220892
  N      -1.064378      0.855284     -0.050352
  C       0.344391      1.522237     -0.234497
  O      -2.348302     -1.060951      0.320949
  O       0.329747      2.691720     -0.473281
  H       2.003503     -1.430775      0.309454
  H      -0.138062     -2.277977      0.525912
  H      -1.622208      1.084040     -0.891285
  H       2.434715      0.962832     -0.179150
  H      -1.544016      1.366718      0.711059
13
Coordinates from ORCA-job Uracil_1 E -414.716378773829
  C       1.416303      0.589481     -0.076049
  C       1.182024     -0.722498      0.189055
  N      -0.065532     -1.279507      0.327474
  C      -1.245230     -0.614371      0.220720
  N      -1.064364      0.855000     -0.050155
  C       0.344616      1.522410     -0.234458
  O      -2.347997     -1.062093      0.320638
  O       0.330119      2.691629     -0.474050
  H       2.003549     -1.430997      0.309738
  H      -0.138379     -2.277859      0.525727
  H      -1.622547      1.084866     -0.890646
  H       2.434450      0.963174     -0.179264
  H      -1.543872      1.366966      0.711069
13
Coordinates from ORCA-job Uracil_1 E -414.716386257488
  C       1.416308      0.589404     -0.075981
  C       1.182133     -0.722561      0.189168
  N      -0.065434     -1.279438      0.327418
  C      -1.245404     -0.614506      0.220550
  N      -1.064365      0.854973     -0.050119
  C       0.344789      1.522436     -0.234906
  O      -2.347941     -1.062619      0.320377
  O       0.330256      2.691608     -0.474498
  H       2.003528     -1.431175      0.310076
  H      -0.138511     -2.277773      0.525639
  H      -1.623046      1.085396     -0.890120
  H       2.434352      0.963454     -0.179110
  H      -1.543525      1.367000      0.711306
