13
* (null), Energy   -1000.0000000
C     1.653111    0.338806   -0.072409   -0.062864   -0.014012    0.004196
C     1.417036   -0.968802    0.212159    0.122510   -0.107499    0.021731
N     0.169278   -1.530502    0.333752   -0.002535    0.001087   -0.000178
C    -1.013486   -0.875739    0.188129   -0.003101    0.000252   -0.000067
N    -0.831970    0.606548   -0.032497    0.000071    0.000161    0.000055
C     0.583167    1.266264   -0.274550    0.001772   -0.000251    0.000054
O    -2.113843   -1.335674    0.228076    0.000697    0.000197   -0.000013
O     0.565830    2.420049   -0.573838   -0.000228    0.000010    0.000000
H     2.239204   -1.673303    0.354845   -1.389876    1.186939   -0.239701
H     0.099186   -2.533091    0.514228    0.008784   -0.008246    0.001396
H    -1.444922    0.886451   -0.818414    0.002321   -0.001239    0.003176
H     2.672257    0.711579   -0.172265    0.708774    0.252188   -0.067759
H    -1.242310    1.089691    0.787885    0.001905   -0.002403   -0.003983
13
* Frequency(34) 3232.0617
C     1.645967    0.337214   -0.071932   -0.062864   -0.014012    0.004196
C     1.430959   -0.981019    0.214628    0.122510   -0.107499    0.021731
N     0.168990   -1.530379    0.333732   -0.002535    0.001087   -0.000178
C    -1.013839   -0.875711    0.188122   -0.003101    0.000252   -0.000067
N    -0.831961    0.606567   -0.032491    0.000071    0.000161    0.000055
C     0.583369    1.266236   -0.274543    0.001772   -0.000251    0.000054
O    -2.113764   -1.335651    0.228075    0.000697    0.000197   -0.000013
O     0.565804    2.420050   -0.573838   -0.000228    0.000010    0.000000
H     2.081252   -1.538413    0.327604   -1.389876    1.186939   -0.239701
H     0.100185   -2.534029    0.514387    0.008784   -0.008246    0.001396
H    -1.444659    0.886310   -0.818053    0.002321   -0.001239    0.003176
H     2.752805    0.740239   -0.179965    0.708774    0.252188   -0.067759
H    -1.242094    1.089417    0.787432    0.001905   -0.002403   -0.003983
13
* Frequency(34) 3232.0617
C     1.639597    0.335794   -0.071507   -0.062864   -0.014012    0.004196
C     1.443373   -0.991911    0.216830    0.122510   -0.107499    0.021731
N     0.168733   -1.530269    0.333714   -0.002535    0.001087   -0.000178
C    -1.014153   -0.875685    0.188115   -0.003101    0.000252   -0.000067
N    -0.831954    0.606583   -0.032485    0.000071    0.000161    0.000055
C     0.583548    1.266210   -0.274538    0.001772   -0.000251    0.000054
O    -2.113694   -1.335631    0.228074    0.000697    0.000197   -0.000013
O     0.565781    2.420052   -0.573838   -0.000228    0.000010    0.000000
H     1.940416   -1.418141    0.303315   -1.389876    1.186939   -0.239701
H     0.101075   -2.534864    0.514528    0.008784   -0.008246    0.001396
H    -1.444423    0.886184   -0.817731    0.002321   -0.001239    0.003176
H     2.824625    0.765793   -0.186831    0.708774    0.252188   -0.067759
H    -1.241901    1.089174    0.787029    0.001905   -0.002403   -0.003983
13
* Frequency(34) 3232.0617
C     1.634692    0.334701   -0.071179   -0.062864   -0.014012    0.004196
C     1.452933   -1.000300    0.218526    0.122510   -0.107499    0.021731
N     0.168536   -1.530184    0.333700   -0.002535    0.001087   -0.000178
C    -1.014395   -0.875666    0.188110   -0.003101    0.000252   -0.000067
N    -0.831949    0.606595   -0.032481    0.000071    0.000161    0.000055
C     0.583686    1.266191   -0.274534    0.001772   -0.000251    0.000054
O    -2.113639   -1.335616    0.228073    0.000697    0.000197   -0.000013
O     0.565763    2.420052   -0.573838   -0.000228    0.000010    0.000000
H     1.831959   -1.325520    0.284610   -1.389876    1.186939   -0.239701
H     0.101760   -2.535507    0.514637    0.008784   -0.008246    0.001396
H    -1.444242    0.886088   -0.817484    0.002321   -0.001239    0.003176
H     2.879934    0.785473   -0.192118    0.708774    0.252188   -0.067759
H    -1.241752    1.088987    0.786718    0.001905   -0.002403   -0.003983
13
* Frequency(34) 3232.0617
C     1.631782    0.334052   -0.070985   -0.062864   -0.014012    0.004196
C     1.458603   -1.005275    0.219532    0.122510   -0.107499    0.021731
N     0.168418   -1.530134    0.333692   -0.002535    0.001087   -0.000178
C    -1.014538   -0.875654    0.188107   -0.003101    0.000252   -0.000067
N    -0.831945    0.606603   -0.032478    0.000071    0.000161    0.000055
C     0.583769    1.266179   -0.274531    0.001772   -0.000251    0.000054
O    -2.113607   -1.335607    0.228072    0.000697    0.000197   -0.000013
O     0.565752    2.420053   -0.573838   -0.000228    0.000010    0.000000
H     1.767633   -1.270586    0.273517   -1.389876    1.186939   -0.239701
H     0.102167   -2.535889    0.514702    0.008784   -0.008246    0.001396
H    -1.444135    0.886030   -0.817337    0.002321   -0.001239    0.003176
H     2.912737    0.797144   -0.195254    0.708774    0.252188   -0.067759
H    -1.241664    1.088875    0.786533    0.001905   -0.002403   -0.003983
13
* Frequency(34) 3232.0617
C     1.631184    0.333919   -0.070945   -0.062864   -0.014012    0.004196
C     1.459769   -1.006298    0.219739    0.122510   -0.107499    0.021731
N     0.168394   -1.530123    0.333690   -0.002535    0.001087   -0.000178
C    -1.014568   -0.875652    0.188106   -0.003101    0.000252   -0.000067
N    -0.831945    0.606604   -0.032478    0.000071    0.000161    0.000055
C     0.583785    1.266177   -0.274531    0.001772   -0.000251    0.000054
O    -2.113600   -1.335605    0.228072    0.000697    0.000197   -0.000013
O     0.565750    2.420053   -0.573838   -0.000228    0.000010    0.000000
H     1.754409   -1.259293    0.271236   -1.389876    1.186939   -0.239701
H     0.102250   -2.535968    0.514715    0.008784   -0.008246    0.001396
H    -1.444113    0.886018   -0.817306    0.002321   -0.001239    0.003176
H     2.919481    0.799544   -0.195899    0.708774    0.252188   -0.067759
H    -1.241646    1.088853    0.786495    0.001905   -0.002403   -0.003983
13
* Frequency(34) 3232.0617
C     1.632962    0.334315   -0.071064   -0.062864   -0.014012    0.004196
C     1.456304   -1.003257    0.219124    0.122510   -0.107499    0.021731
N     0.168466   -1.530154    0.333695   -0.002535    0.001087   -0.000178
C    -1.014480   -0.875659    0.188108   -0.003101    0.000252   -0.000067
N    -0.831947    0.606600   -0.032479    0.000071    0.000161    0.000055
C     0.583735    1.266184   -0.274532    0.001772   -0.000251    0.000054
O    -2.113620   -1.335611    0.228072    0.000697    0.000197   -0.000013
O     0.565757    2.420053   -0.573838   -0.000228    0.000010    0.000000
H     1.793720   -1.292864    0.278016   -1.389876    1.186939   -0.239701
H     0.102002   -2.535734    0.514676    0.008784   -0.008246    0.001396
H    -1.444178    0.886053   -0.817396    0.002321   -0.001239    0.003176
H     2.899434    0.792411   -0.193983    0.708774    0.252188   -0.067759
H    -1.241700    1.088920    0.786608    0.001905   -0.002403   -0.003983
13
* Frequency(34) 3232.0617
C     1.636924    0.335198   -0.071328   -0.062864   -0.014012    0.004196
C     1.448583   -0.996483    0.217755    0.122510   -0.107499    0.021731
N     0.168626   -1.530222    0.333706   -0.002535    0.001087   -0.000178
C    -1.014285   -0.875675    0.188112   -0.003101    0.000252   -0.000067
N    -0.831951    0.606590   -0.032483    0.000071    0.000161    0.000055
C     0.583624    1.266200   -0.274536    0.001772   -0.000251    0.000054
O    -2.113664   -1.335623    0.228073    0.000697    0.000197   -0.000013
O     0.565771    2.420052   -0.573838   -0.000228    0.000010    0.000000
H     1.881306   -1.367662    0.293121   -1.389876    1.186939   -0.239701
H     0.101448   -2.535215    0.514588    0.008784   -0.008246    0.001396
H    -1.444325    0.886132   -0.817596    0.002321   -0.001239    0.003176
H     2.854769    0.776519   -0.189713    0.708774    0.252188   -0.067759
H    -1.241820    1.089072    0.786859    0.001905   -0.002403   -0.003983
13
* Frequency(34) 3232.0617
C     1.642639    0.336472   -0.071710   -0.062864   -0.014012    0.004196
C     1.437444   -0.986709    0.215779    0.122510   -0.107499    0.021731
N     0.168856   -1.530321    0.333722   -0.002535    0.001087   -0.000178
C    -1.014003   -0.875697    0.188118   -0.003101    0.000252   -0.000067
N    -0.831958    0.606575   -0.032488    0.000071    0.000161    0.000055
C     0.583462    1.266223   -0.274541    0.001772   -0.000251    0.000054
O    -2.113727   -1.335641    0.228074    0.000697    0.000197   -0.000013
O     0.565792    2.420051   -0.573838   -0.000228    0.000010    0.000000
H     2.007676   -1.475580    0.314915   -1.389876    1.186939   -0.239701
H     0.100650   -2.534465    0.514461    0.008784   -0.008246    0.001396
H    -1.444536    0.886244   -0.817885    0.002321   -0.001239    0.003176
H     2.790326    0.753589   -0.183552    0.708774    0.252188   -0.067759
H    -1.241993    1.089290    0.787221    0.001905   -0.002403   -0.003983
13
* Frequency(34) 3232.0617
C     1.649490    0.337999   -0.072167   -0.062864   -0.014012    0.004196
C     1.424094   -0.974995    0.213411    0.122510   -0.107499    0.021731
N     0.169132   -1.530440    0.333742   -0.002535    0.001087   -0.000178
C    -1.013665   -0.875725    0.188126   -0.003101    0.000252   -0.000067
N    -0.831965    0.606558   -0.032494    0.000071    0.000161    0.000055
C     0.583269    1.266250   -0.274546    0.001772   -0.000251    0.000054
O    -2.113803   -1.335662    0.228076    0.000697    0.000197   -0.000013
O     0.565817    2.420050   -0.573838   -0.000228    0.000010    0.000000
H     2.159136   -1.604925    0.341036   -1.389876    1.186939   -0.239701
H     0.099692   -2.533566    0.514309    0.008784   -0.008246    0.001396
H    -1.444789    0.886379   -0.818231    0.002321   -0.001239    0.003176
H     2.713088    0.726107   -0.176168    0.708774    0.252188   -0.067759
H    -1.242200    1.089552    0.787655    0.001905   -0.002403   -0.003983
13
* Frequency(34) 3232.0617
C     1.656733    0.339614   -0.072650   -0.062864   -0.014012    0.004196
C     1.409979   -0.962609    0.210907    0.122510   -0.107499    0.021731
N     0.169424   -1.530565    0.333762   -0.002535    0.001087   -0.000178
C    -1.013308   -0.875754    0.188133   -0.003101    0.000252   -0.000067
N    -0.831974    0.606539   -0.032500    0.000071    0.000161    0.000055
C     0.583065    1.266279   -0.274553    0.001772   -0.000251    0.000054
O    -2.113883   -1.335685    0.228077    0.000697    0.000197   -0.000013
O     0.565843    2.420049   -0.573838   -0.000228    0.000010    0.000000
H     2.319272   -1.741680    0.368653   -1.389876    1.186939   -0.239701
H     0.098680   -2.532616    0.514148    0.008784   -0.008246    0.001396
H    -1.445056    0.886522   -0.818597    0.002321   -0.001239    0.003176
H     2.631426    0.697051   -0.168361    0.708774    0.252188   -0.067759
H    -1.242420    1.089829    0.788114    0.001905   -0.002403   -0.003983
13
* Frequency(34) 3232.0617
C     1.663583    0.341140   -0.073108   -0.062864   -0.014012    0.004196
C     1.396628   -0.950895    0.208539    0.122510   -0.107499    0.021731
N     0.169701   -1.530684    0.333781   -0.002535    0.001087   -0.000178
C    -1.012970   -0.875781    0.188141   -0.003101    0.000252   -0.000067
N    -0.831981    0.606522   -0.032506    0.000071    0.000161    0.000055
C     0.582872    1.266306   -0.274558    0.001772   -0.000251    0.000054
O    -2.113959   -1.335706    0.228078    0.000697    0.000197   -0.000013
O     0.565868    2.420048   -0.573838   -0.000228    0.000010    0.000000
H     2.470732   -1.871025    0.394774   -1.389876    1.186939   -0.239701
H     0.097723   -2.531718    0.513996    0.008784   -0.008246    0.001396
H    -1.445309    0.886657   -0.818943    0.002321   -0.001239    0.003176
H     2.554188    0.669569   -0.160977    0.708774    0.252188   -0.067759
H    -1.242627    1.090091    0.788548    0.001905   -0.002403   -0.003983
13
* Frequency(34) 3232.0617
C     1.669299    0.342414   -0.073489   -0.062864   -0.014012    0.004196
C     1.385490   -0.941121    0.206563    0.122510   -0.107499    0.021731
N     0.169931   -1.530782    0.333798   -0.002535    0.001087   -0.000178
C    -1.012688   -0.875804    0.188147   -0.003101    0.000252   -0.000067
N    -0.831988    0.606507   -0.032511    0.000071    0.000161    0.000055
C     0.582711    1.266329   -0.274563    0.001772   -0.000251    0.000054
O    -2.114023   -1.335724    0.228080    0.000697    0.000197   -0.000013
O     0.565889    2.420047   -0.573838   -0.000228    0.000010    0.000000
H     2.597102   -1.978943    0.416568   -1.389876    1.186939   -0.239701
H     0.096925   -2.530968    0.513869    0.008784   -0.008246    0.001396
H    -1.445520    0.886770   -0.819232    0.002321   -0.001239    0.003176
H     2.489745    0.646640   -0.154817    0.708774    0.252188   -0.067759
H    -1.242801    1.090309    0.788911    0.001905   -0.002403   -0.003983
13
* Frequency(34) 3232.0617
C     1.673261    0.343297   -0.073753   -0.062864   -0.014012    0.004196
C     1.377769   -0.934346    0.205193    0.122510   -0.107499    0.021731
N     0.170091   -1.530851    0.333809   -0.002535    0.001087   -0.000178
C    -1.012492   -0.875820    0.188151   -0.003101    0.000252   -0.000067
N    -0.831992    0.606497   -0.032514    0.000071    0.000161    0.000055
C     0.582599    1.266345   -0.274567    0.001772   -0.000251    0.000054
O    -2.114067   -1.335737    0.228080    0.000697    0.000197   -0.000013
O     0.565903    2.420046   -0.573838   -0.000228    0.000010    0.000000
H     2.684688   -2.053741    0.431674   -1.389876    1.186939   -0.239701
H     0.096371   -2.530449    0.513781    0.008784   -0.008246    0.001396
H    -1.445666    0.886848   -0.819432    0.002321   -0.001239    0.003176
H     2.445080    0.630748   -0.150547    0.708774    0.252188   -0.067759
H    -1.242921    1.090461    0.789162    0.001905   -0.002403   -0.003983
13
* Frequency(34) 3232.0617
C     1.675039    0.343694   -0.073872   -0.062864   -0.014012    0.004196
C     1.374304   -0.931306    0.204579    0.122510   -0.107499    0.021731
N     0.170163   -1.530882    0.333814   -0.002535    0.001087   -0.000178
C    -1.012405   -0.875827    0.188153   -0.003101    0.000252   -0.000067
N    -0.831994    0.606492   -0.032516    0.000071    0.000161    0.000055
C     0.582549    1.266352   -0.274568    0.001772   -0.000251    0.000054
O    -2.114086   -1.335742    0.228081    0.000697    0.000197   -0.000013
O     0.565909    2.420046   -0.573838   -0.000228    0.000010    0.000000
H     2.723999   -2.087312    0.438453   -1.389876    1.186939   -0.239701
H     0.096122   -2.530215    0.513742    0.008784   -0.008246    0.001396
H    -1.445732    0.886883   -0.819522    0.002321   -0.001239    0.003176
H     2.425033    0.623615   -0.148630    0.708774    0.252188   -0.067759
H    -1.242975    1.090529    0.789274    0.001905   -0.002403   -0.003983
13
* Frequency(34) 3232.0617
C     1.674441    0.343560   -0.073832   -0.062864   -0.014012    0.004196
C     1.375470   -0.932329    0.204786    0.122510   -0.107499    0.021731
N     0.170138   -1.530871    0.333812   -0.002535    0.001087   -0.000178
C    -1.012434   -0.875825    0.188152   -0.003101    0.000252   -0.000067
N    -0.831994    0.606494   -0.032515    0.000071    0.000161    0.000055
C     0.582566    1.266350   -0.274568    0.001772   -0.000251    0.000054
O    -2.114080   -1.335740    0.228081    0.000697    0.000197   -0.000013
O     0.565907    2.420046   -0.573838   -0.000228    0.000010    0.000000
H     2.710775   -2.076019    0.436173   -1.389876    1.186939   -0.239701
H     0.096206   -2.530294    0.513755    0.008784   -0.008246    0.001396
H    -1.445710    0.886871   -0.819492    0.002321   -0.001239    0.003176
H     2.431777    0.626014   -0.149275    0.708774    0.252188   -0.067759
H    -1.242956    1.090506    0.789236    0.001905   -0.002403   -0.003983
13
* Frequency(34) 3232.0617
C     1.671531    0.342912   -0.073638   -0.062864   -0.014012    0.004196
C     1.381140   -0.937304    0.205791    0.122510   -0.107499    0.021731
N     0.170021   -1.530821    0.333804   -0.002535    0.001087   -0.000178
C    -1.012578   -0.875813    0.188149   -0.003101    0.000252   -0.000067
N    -0.831990    0.606501   -0.032513    0.000071    0.000161    0.000055
C     0.582648    1.266338   -0.274565    0.001772   -0.000251    0.000054
O    -2.114047   -1.335731    0.228080    0.000697    0.000197   -0.000013
O     0.565897    2.420046   -0.573838   -0.000228    0.000010    0.000000
H     2.646449   -2.021085    0.425079   -1.389876    1.186939   -0.239701
H     0.096613   -2.530675    0.513819    0.008784   -0.008246    0.001396
H    -1.445602    0.886814   -0.819345    0.002321   -0.001239    0.003176
H     2.464580    0.637686   -0.152411    0.708774    0.252188   -0.067759
H    -1.242868    1.090394    0.789052    0.001905   -0.002403   -0.003983
13
* Frequency(34) 3232.0617
C     1.666626    0.341819   -0.073311   -0.062864   -0.014012    0.004196
C     1.390700   -0.945692    0.207487    0.122510   -0.107499    0.021731
N     0.169823   -1.530736    0.333790   -0.002535    0.001087   -0.000178
C    -1.012820   -0.875794    0.188144   -0.003101    0.000252   -0.000067
N    -0.831985    0.606514   -0.032509    0.000071    0.000161    0.000055
C     0.582786    1.266318   -0.274561    0.001772   -0.000251    0.000054
O    -2.113993   -1.335716    0.228079    0.000697    0.000197   -0.000013
O     0.565879    2.420047   -0.573838   -0.000228    0.000010    0.000000
H     2.537992   -1.928464    0.406374   -1.389876    1.186939   -0.239701
H     0.097298   -2.531319    0.513928    0.008784   -0.008246    0.001396
H    -1.445421    0.886717   -0.819097    0.002321   -0.001239    0.003176
H     2.519888    0.657365   -0.157698    0.708774    0.252188   -0.067759
H    -1.242720    1.090207    0.788741    0.001905   -0.002403   -0.003983
13
* Frequency(34) 3232.0617
C     1.660256    0.340399   -0.072885   -0.062864   -0.014012    0.004196
C     1.403114   -0.956585    0.209689    0.122510   -0.107499    0.021731
N     0.169566   -1.530626    0.333772   -0.002535    0.001087   -0.000178
C    -1.013134   -0.875768    0.188137   -0.003101    0.000252   -0.000067
N    -0.831978    0.606530   -0.032503    0.000071    0.000161    0.000055
C     0.582966    1.266293   -0.274556    0.001772   -0.000251    0.000054
O    -2.113923   -1.335696    0.228078    0.000697    0.000197   -0.000013
O     0.565856    2.420048   -0.573838   -0.000228    0.000010    0.000000
H     2.397156   -1.808192    0.382085   -1.389876    1.186939   -0.239701
H     0.098188   -2.532154    0.514070    0.008784   -0.008246    0.001396
H    -1.445186    0.886591   -0.818775    0.002321   -0.001239    0.003176
H     2.591708    0.682919   -0.164564    0.708774    0.252188   -0.067759
H    -1.242527    1.089964    0.788338    0.001905   -0.002403   -0.003983
13
* Frequency(34) 3232.0617
C     1.653111    0.338806   -0.072409   -0.062864   -0.014012    0.004196
C     1.417036   -0.968802    0.212159    0.122510   -0.107499    0.021731
N     0.169278   -1.530502    0.333752   -0.002535    0.001087   -0.000178
C    -1.013486   -0.875739    0.188129   -0.003101    0.000252   -0.000067
N    -0.831970    0.606548   -0.032497    0.000071    0.000161    0.000055
C     0.583167    1.266264   -0.274550    0.001772   -0.000251    0.000054
O    -2.113843   -1.335674    0.228076    0.000697    0.000197   -0.000013
O     0.565830    2.420049   -0.573838   -0.000228    0.000010    0.000000
H     2.239204   -1.673303    0.354845   -1.389876    1.186939   -0.239701
H     0.099186   -2.533091    0.514228    0.008784   -0.008246    0.001396
H    -1.444922    0.886451   -0.818414    0.002321   -0.001239    0.003176
H     2.672257    0.711579   -0.172265    0.708774    0.252188   -0.067759
H    -1.242310    1.089691    0.787885    0.001905   -0.002403   -0.003983
