13
* (null), Energy   -1000.0000000
C     1.653111    0.338806   -0.072409    0.019430    0.159353    0.691717
C     1.417036   -0.968802    0.212159    0.011421    0.017651    0.025798
N     0.169278   -1.530502    0.333752    0.004924   -0.131901   -0.708815
C    -1.013486   -0.875739    0.188129   -0.003132   -0.013445   -0.066131
N    -0.831970    0.606548   -0.032497    0.006689    0.011677    0.048888
C     0.583167    1.266264   -0.274550   -0.001436    0.017238    0.120568
O    -2.113843   -1.335674    0.228076   -0.026617    0.080858    0.383509
O     0.565830    2.420049   -0.573838   -0.006104   -0.118574   -0.404996
H     2.239204   -1.673303    0.354845    0.008074    0.014181    0.027799
H     0.099186   -2.533091    0.514228    0.008964   -0.190202   -1.031039
H    -1.444922    0.886451   -0.818414    0.026500    0.065683    0.051955
H     2.672257    0.711579   -0.172265    0.025667    0.276861    1.194533
H    -1.242310    1.089691    0.787885   -0.024398   -0.051613    0.069716
13
* Frequency(7)  153.0174
C     1.655319    0.356916    0.006201    0.019430    0.159353    0.691717
C     1.418334   -0.966796    0.215091    0.011421    0.017651    0.025798
N     0.169838   -1.545492    0.253199    0.004924   -0.131901   -0.708815
C    -1.013842   -0.877267    0.180614   -0.003132   -0.013445   -0.066131
N    -0.831209    0.607875   -0.026941    0.006689    0.011677    0.048888
C     0.583004    1.268223   -0.260848   -0.001436    0.017238    0.120568
O    -2.116868   -1.326484    0.271660   -0.026617    0.080858    0.383509
O     0.565136    2.406574   -0.619863   -0.006104   -0.118574   -0.404996
H     2.240121   -1.671691    0.358004    0.008074    0.014181    0.027799
H     0.100205   -2.554707    0.397056    0.008964   -0.190202   -1.031039
H    -1.441911    0.893915   -0.812510    0.026500    0.065683    0.051955
H     2.675174    0.743043   -0.036512    0.025667    0.276861    1.194533
H    -1.245083    1.083825    0.795808   -0.024398   -0.051613    0.069716
13
* Frequency(7)  153.0174
C     1.657288    0.373063    0.076293    0.019430    0.159353    0.691717
C     1.419492   -0.965007    0.217705    0.011421    0.017651    0.025798
N     0.170337   -1.558858    0.181375    0.004924   -0.131901   -0.708815
C    -1.014159   -0.878630    0.173913   -0.003132   -0.013445   -0.066131
N    -0.830532    0.609059   -0.021987    0.006689    0.011677    0.048888
C     0.582858    1.269970   -0.248631   -0.001436    0.017238    0.120568
O    -2.119565   -1.318291    0.310521   -0.026617    0.080858    0.383509
O     0.564518    2.394559   -0.660901   -0.006104   -0.118574   -0.404996
H     2.240940   -1.670254    0.360821    0.008074    0.014181    0.027799
H     0.101113   -2.573980    0.292581    0.008964   -0.190202   -1.031039
H    -1.439225    0.900571   -0.807245    0.026500    0.065683    0.051955
H     2.677775    0.771097    0.084530    0.025667    0.276861    1.194533
H    -1.247555    1.078595    0.802872   -0.024398   -0.051613    0.069716
13
* Frequency(7)  153.0174
C     1.658804    0.385498    0.130270    0.019430    0.159353    0.691717
C     1.420383   -0.963630    0.219718    0.011421    0.017651    0.025798
N     0.170721   -1.569150    0.126063    0.004924   -0.131901   -0.708815
C    -1.014404   -0.879679    0.168752   -0.003132   -0.013445   -0.066131
N    -0.830010    0.609970   -0.018172    0.006689    0.011677    0.048888
C     0.582746    1.271315   -0.239222   -0.001436    0.017238    0.120568
O    -2.121642   -1.311981    0.340448   -0.026617    0.080858    0.383509
O     0.564041    2.385306   -0.692505   -0.006104   -0.118574   -0.404996
H     2.241570   -1.669147    0.362990    0.008074    0.014181    0.027799
H     0.101813   -2.588822    0.212125    0.008964   -0.190202   -1.031039
H    -1.437158    0.905696   -0.803191    0.026500    0.065683    0.051955
H     2.679777    0.792702    0.177744    0.025667    0.276861    1.194533
H    -1.249459    1.074568    0.808312   -0.024398   -0.051613    0.069716
13
* Frequency(7)  153.0174
C     1.659704    0.392873    0.162284    0.019430    0.159353    0.691717
C     1.420911   -0.962813    0.220912    0.011421    0.017651    0.025798
N     0.170949   -1.575255    0.093258    0.004924   -0.131901   -0.708815
C    -1.014549   -0.880301    0.165692   -0.003132   -0.013445   -0.066131
N    -0.829700    0.610510   -0.015910    0.006689    0.011677    0.048888
C     0.582680    1.272113   -0.233642   -0.001436    0.017238    0.120568
O    -2.122874   -1.308239    0.358197   -0.026617    0.080858    0.383509
O     0.563759    2.379818   -0.711249   -0.006104   -0.118574   -0.404996
H     2.241943   -1.668491    0.364277    0.008074    0.014181    0.027799
H     0.102228   -2.597625    0.164407    0.008964   -0.190202   -1.031039
H    -1.435931    0.908736   -0.800786    0.026500    0.065683    0.051955
H     2.680965    0.805515    0.233029    0.025667    0.276861    1.194533
H    -1.250588    1.072179    0.811539   -0.024398   -0.051613    0.069716
13
* Frequency(7)  153.0174
C     1.659888    0.394390    0.168865    0.019430    0.159353    0.691717
C     1.421020   -0.962645    0.221157    0.011421    0.017651    0.025798
N     0.170996   -1.576510    0.086514    0.004924   -0.131901   -0.708815
C    -1.014579   -0.880429    0.165063   -0.003132   -0.013445   -0.066131
N    -0.829637    0.610621   -0.015445    0.006689    0.011677    0.048888
C     0.582666    1.272277   -0.232495   -0.001436    0.017238    0.120568
O    -2.123128   -1.307470    0.361846   -0.026617    0.080858    0.383509
O     0.563701    2.378690   -0.715102   -0.006104   -0.118574   -0.404996
H     2.242020   -1.668356    0.364541    0.008074    0.014181    0.027799
H     0.102313   -2.599435    0.154597    0.008964   -0.190202   -1.031039
H    -1.435679    0.909361   -0.800292    0.026500    0.065683    0.051955
H     2.681210    0.808150    0.244394    0.025667    0.276861    1.194533
H    -1.250820    1.071688    0.812202   -0.024398   -0.051613    0.069716
13
* Frequency(7)  153.0174
C     1.659339    0.389882    0.149301    0.019430    0.159353    0.691717
C     1.420697   -0.963144    0.220427    0.011421    0.017651    0.025798
N     0.170857   -1.572779    0.106562    0.004924   -0.131901   -0.708815
C    -1.014490   -0.880049    0.166933   -0.003132   -0.013445   -0.066131
N    -0.829826    0.610291   -0.016827    0.006689    0.011677    0.048888
C     0.582707    1.271790   -0.235905   -0.001436    0.017238    0.120568
O    -2.122375   -1.309757    0.350999   -0.026617    0.080858    0.383509
O     0.563873    2.382044   -0.703647   -0.006104   -0.118574   -0.404996
H     2.241792   -1.668757    0.363755    0.008074    0.014181    0.027799
H     0.102059   -2.594055    0.183759    0.008964   -0.190202   -1.031039
H    -1.436428    0.907503   -0.801762    0.026500    0.065683    0.051955
H     2.680484    0.800319    0.210608    0.025667    0.276861    1.194533
H    -1.250130    1.073148    0.810230   -0.024398   -0.051613    0.069716
13
* Frequency(7)  153.0174
C     1.658114    0.379840    0.105711    0.019430    0.159353    0.691717
C     1.419977   -0.964257    0.218802    0.011421    0.017651    0.025798
N     0.170546   -1.564467    0.151230    0.004924   -0.131901   -0.708815
C    -1.014293   -0.879202    0.171100   -0.003132   -0.013445   -0.066131
N    -0.830247    0.609555   -0.019908    0.006689    0.011677    0.048888
C     0.582797    1.270703   -0.243503   -0.001436    0.017238    0.120568
O    -2.120697   -1.314852    0.326831   -0.026617    0.080858    0.383509
O     0.564258    2.389516   -0.678126   -0.006104   -0.118574   -0.404996
H     2.241283   -1.669651    0.362003    0.008074    0.014181    0.027799
H     0.101495   -2.582069    0.248732    0.008964   -0.190202   -1.031039
H    -1.438098    0.903364   -0.805036    0.026500    0.065683    0.051955
H     2.678866    0.782872    0.135332    0.025667    0.276861    1.194533
H    -1.248593    1.076400    0.805837   -0.024398   -0.051613    0.069716
13
* Frequency(7)  153.0174
C     1.656348    0.365352    0.042819    0.019430    0.159353    0.691717
C     1.418939   -0.965862    0.216456    0.011421    0.017651    0.025798
N     0.170099   -1.552475    0.215676    0.004924   -0.131901   -0.708815
C    -1.014008   -0.877979    0.177113   -0.003132   -0.013445   -0.066131
N    -0.830855    0.608493   -0.024353    0.006689    0.011677    0.048888
C     0.582928    1.269136   -0.254465   -0.001436    0.017238    0.120568
O    -2.118277   -1.322204    0.291962   -0.026617    0.080858    0.383509
O     0.564813    2.400297   -0.641303   -0.006104   -0.118574   -0.404996
H     2.240549   -1.670940    0.359476    0.008074    0.014181    0.027799
H     0.100680   -2.564776    0.342476    0.008964   -0.190202   -1.031039
H    -1.440508    0.897392   -0.809759    0.026500    0.065683    0.051955
H     2.676532    0.757699    0.026723    0.025667    0.276861    1.194533
H    -1.246374    1.081093    0.799498   -0.024398   -0.051613    0.069716
13
* Frequency(7)  153.0174
C     1.654231    0.347986   -0.032560    0.019430    0.159353    0.691717
C     1.417694   -0.967785    0.213645    0.011421    0.017651    0.025798
N     0.169562   -1.538101    0.292918    0.004924   -0.131901   -0.708815
C    -1.013667   -0.876514    0.184320   -0.003132   -0.013445   -0.066131
N    -0.831584    0.607221   -0.029680    0.006689    0.011677    0.048888
C     0.583084    1.267258   -0.267604   -0.001436    0.017238    0.120568
O    -2.115377   -1.331016    0.250170   -0.026617    0.080858    0.383509
O     0.565478    2.413218   -0.597169   -0.006104   -0.118574   -0.404996
H     2.239669   -1.672486    0.356446    0.008074    0.014181    0.027799
H     0.099703   -2.544049    0.454832    0.008964   -0.190202   -1.031039
H    -1.443396    0.890234   -0.815421    0.026500    0.065683    0.051955
H     2.673735    0.727529   -0.103450    0.025667    0.276861    1.194533
H    -1.243716    1.086717    0.791901   -0.024398   -0.051613    0.069716
13
* Frequency(7)  153.0174
C     1.651992    0.329626   -0.112257    0.019430    0.159353    0.691717
C     1.416379   -0.969819    0.210673    0.011421    0.017651    0.025798
N     0.168995   -1.522904    0.374585    0.004924   -0.131901   -0.708815
C    -1.013306   -0.874965    0.191939   -0.003132   -0.013445   -0.066131
N    -0.832355    0.605876   -0.035313    0.006689    0.011677    0.048888
C     0.583250    1.265271   -0.281495   -0.001436    0.017238    0.120568
O    -2.112310   -1.340332    0.205983   -0.026617    0.080858    0.383509
O     0.566181    2.426880   -0.550507   -0.006104   -0.118574   -0.404996
H     2.238739   -1.674119    0.353243    0.008074    0.014181    0.027799
H     0.098670   -2.522134    0.573625    0.008964   -0.190202   -1.031039
H    -1.446449    0.882667   -0.821407    0.026500    0.065683    0.051955
H     2.670778    0.695630   -0.241079    0.025667    0.276861    1.194533
H    -1.240905    1.092664    0.783869   -0.024398   -0.051613    0.069716
13
* Frequency(7)  153.0174
C     1.649875    0.312261   -0.187636    0.019430    0.159353    0.691717
C     1.415134   -0.971742    0.207861    0.011421    0.017651    0.025798
N     0.168458   -1.508530    0.451827    0.004924   -0.131901   -0.708815
C    -1.012965   -0.873500    0.199146   -0.003132   -0.013445   -0.066131
N    -0.833084    0.604603   -0.040641    0.006689    0.011677    0.048888
C     0.583406    1.263393   -0.294634   -0.001436    0.017238    0.120568
O    -2.109409   -1.349143    0.164191   -0.026617    0.080858    0.383509
O     0.566847    2.439801   -0.506373   -0.006104   -0.118574   -0.404996
H     2.237859   -1.675665    0.350214    0.008074    0.014181    0.027799
H     0.097693   -2.501407    0.685980    0.008964   -0.190202   -1.031039
H    -1.449337    0.875509   -0.827069    0.026500    0.065683    0.051955
H     2.667981    0.665459   -0.371252    0.025667    0.276861    1.194533
H    -1.238246    1.098288    0.776271   -0.024398   -0.051613    0.069716
13
* Frequency(7)  153.0174
C     1.648108    0.297772   -0.250528    0.019430    0.159353    0.691717
C     1.414096   -0.973347    0.205516    0.011421    0.017651    0.025798
N     0.168010   -1.496537    0.516274    0.004924   -0.131901   -0.708815
C    -1.012680   -0.872277    0.205158   -0.003132   -0.013445   -0.066131
N    -0.833692    0.603541   -0.045086    0.006689    0.011677    0.048888
C     0.583537    1.261826   -0.305596   -0.001436    0.017238    0.120568
O    -2.106989   -1.356495    0.129321   -0.026617    0.080858    0.383509
O     0.567402    2.450582   -0.469550   -0.006104   -0.118574   -0.404996
H     2.237125   -1.676954    0.347686    0.008074    0.014181    0.027799
H     0.096878   -2.484114    0.779724    0.008964   -0.190202   -1.031039
H    -1.451746    0.869537   -0.831793    0.026500    0.065683    0.051955
H     2.665647    0.640287   -0.479861    0.025667    0.276861    1.194533
H    -1.236028    1.102981    0.769933   -0.024398   -0.051613    0.069716
13
* Frequency(7)  153.0174
C     1.646884    0.287730   -0.294118    0.019430    0.159353    0.691717
C     1.413376   -0.974459    0.203890    0.011421    0.017651    0.025798
N     0.167700   -1.488225    0.560942    0.004924   -0.131901   -0.708815
C    -1.012482   -0.871430    0.209326   -0.003132   -0.013445   -0.066131
N    -0.834113    0.602806   -0.048166    0.006689    0.011677    0.048888
C     0.583627    1.260739   -0.313194   -0.001436    0.017238    0.120568
O    -2.105312   -1.361590    0.105154   -0.026617    0.080858    0.383509
O     0.567786    2.458055   -0.444028   -0.006104   -0.118574   -0.404996
H     2.236616   -1.677848    0.345935    0.008074    0.014181    0.027799
H     0.096313   -2.472128    0.844698    0.008964   -0.190202   -1.031039
H    -1.453416    0.865398   -0.835067    0.026500    0.065683    0.051955
H     2.664030    0.622840   -0.555137    0.025667    0.276861    1.194533
H    -1.234490    1.106233    0.765539   -0.024398   -0.051613    0.069716
13
* Frequency(7)  153.0174
C     1.646334    0.283223   -0.313683    0.019430    0.159353    0.691717
C     1.413053   -0.974959    0.203160    0.011421    0.017651    0.025798
N     0.167561   -1.484495    0.580990    0.004924   -0.131901   -0.708815
C    -1.012394   -0.871050    0.211196   -0.003132   -0.013445   -0.066131
N    -0.834303    0.602475   -0.049549    0.006689    0.011677    0.048888
C     0.583668    1.260252   -0.316604   -0.001436    0.017238    0.120568
O    -2.104559   -1.363877    0.094306   -0.026617    0.080858    0.383509
O     0.567959    2.461408   -0.432573   -0.006104   -0.118574   -0.404996
H     2.236388   -1.678249    0.345148    0.008074    0.014181    0.027799
H     0.096060   -2.466748    0.873859    0.008964   -0.190202   -1.031039
H    -1.454166    0.863540   -0.836536    0.026500    0.065683    0.051955
H     2.663304    0.615009   -0.588923    0.025667    0.276861    1.194533
H    -1.233800    1.107693    0.763568   -0.024398   -0.051613    0.069716
13
* Frequency(7)  153.0174
C     1.646519    0.284739   -0.307101    0.019430    0.159353    0.691717
C     1.413162   -0.974791    0.203406    0.011421    0.017651    0.025798
N     0.167608   -1.485750    0.574246    0.004924   -0.131901   -0.708815
C    -1.012424   -0.871178    0.210567   -0.003132   -0.013445   -0.066131
N    -0.834239    0.602586   -0.049084    0.006689    0.011677    0.048888
C     0.583654    1.260416   -0.315457   -0.001436    0.017238    0.120568
O    -2.104812   -1.363108    0.097955   -0.026617    0.080858    0.383509
O     0.567901    2.460280   -0.436427   -0.006104   -0.118574   -0.404996
H     2.236465   -1.678114    0.345413    0.008074    0.014181    0.027799
H     0.096145   -2.468558    0.864050    0.008964   -0.190202   -1.031039
H    -1.453914    0.864165   -0.836042    0.026500    0.065683    0.051955
H     2.663548    0.617643   -0.577558    0.025667    0.276861    1.194533
H    -1.234032    1.107202    0.764231   -0.024398   -0.051613    0.069716
13
* Frequency(7)  153.0174
C     1.647418    0.292115   -0.275087    0.019430    0.159353    0.691717
C     1.413690   -0.973974    0.204600    0.011421    0.017651    0.025798
N     0.167835   -1.491854    0.541441    0.004924   -0.131901   -0.708815
C    -1.012569   -0.871800    0.207506   -0.003132   -0.013445   -0.066131
N    -0.833929    0.603127   -0.046821    0.006689    0.011677    0.048888
C     0.583588    1.261214   -0.309877   -0.001436    0.017238    0.120568
O    -2.106044   -1.359366    0.115705   -0.026617    0.080858    0.383509
O     0.567618    2.454792   -0.455171   -0.006104   -0.118574   -0.404996
H     2.236838   -1.677458    0.346699    0.008074    0.014181    0.027799
H     0.096560   -2.477361    0.816331    0.008964   -0.190202   -1.031039
H    -1.452687    0.867205   -0.833637    0.026500    0.065683    0.051955
H     2.664736    0.630457   -0.522273    0.025667    0.276861    1.194533
H    -1.235161    1.104813    0.767457   -0.024398   -0.051613    0.069716
13
* Frequency(7)  153.0174
C     1.648934    0.304550   -0.221110    0.019430    0.159353    0.691717
C     1.414581   -0.972596    0.206613    0.011421    0.017651    0.025798
N     0.168220   -1.502147    0.486129    0.004924   -0.131901   -0.708815
C    -1.012813   -0.872849    0.202346   -0.003132   -0.013445   -0.066131
N    -0.833407    0.604038   -0.043006    0.006689    0.011677    0.048888
C     0.583476    1.262559   -0.300469   -0.001436    0.017238    0.120568
O    -2.108121   -1.353056    0.145632   -0.026617    0.080858    0.383509
O     0.567142    2.445540   -0.486774   -0.006104   -0.118574   -0.404996
H     2.237468   -1.676351    0.348869    0.008074    0.014181    0.027799
H     0.097260   -2.492203    0.735875    0.008964   -0.190202   -1.031039
H    -1.450619    0.872331   -0.829583    0.026500    0.065683    0.051955
H     2.666739    0.652061   -0.429059    0.025667    0.276861    1.194533
H    -1.237065    1.100786    0.772898   -0.024398   -0.051613    0.069716
13
* Frequency(7)  153.0174
C     1.650903    0.320697   -0.151019    0.019430    0.159353    0.691717
C     1.415739   -0.970808    0.209227    0.011421    0.017651    0.025798
N     0.168719   -1.515513    0.414305    0.004924   -0.131901   -0.708815
C    -1.013130   -0.874211    0.195645   -0.003132   -0.013445   -0.066131
N    -0.832730    0.605221   -0.038053    0.006689    0.011677    0.048888
C     0.583330    1.264305   -0.288251   -0.001436    0.017238    0.120568
O    -2.110818   -1.344863    0.184492   -0.026617    0.080858    0.383509
O     0.566524    2.433525   -0.527812   -0.006104   -0.118574   -0.404996
H     2.238286   -1.674914    0.351686    0.008074    0.014181    0.027799
H     0.098168   -2.511476    0.631401    0.008964   -0.190202   -1.031039
H    -1.447934    0.878986   -0.824318    0.026500    0.065683    0.051955
H     2.669340    0.680115   -0.308017    0.025667    0.276861    1.194533
H    -1.239538    1.095556    0.779962   -0.024398   -0.051613    0.069716
13
* Frequency(7)  153.0174
C     1.653111    0.338806   -0.072409    0.019430    0.159353    0.691717
C     1.417036   -0.968802    0.212159    0.011421    0.017651    0.025798
N     0.169278   -1.530502    0.333752    0.004924   -0.131901   -0.708815
C    -1.013486   -0.875739    0.188129   -0.003132   -0.013445   -0.066131
N    -0.831970    0.606548   -0.032497    0.006689    0.011677    0.048888
C     0.583167    1.266264   -0.274550   -0.001436    0.017238    0.120568
O    -2.113843   -1.335674    0.228076   -0.026617    0.080858    0.383509
O     0.565830    2.420049   -0.573838   -0.006104   -0.118574   -0.404996
H     2.239204   -1.673303    0.354845    0.008074    0.014181    0.027799
H     0.099186   -2.533091    0.514228    0.008964   -0.190202   -1.031039
H    -1.444922    0.886451   -0.818414    0.026500    0.065683    0.051955
H     2.672257    0.711579   -0.172265    0.025667    0.276861    1.194533
H    -1.242310    1.089691    0.787885   -0.024398   -0.051613    0.069716
