13
* (null), Energy   -1000.0000000
C     1.653111    0.338806   -0.072409    0.015478    0.032220    0.122966
C     1.417036   -0.968802    0.212159    0.017691   -0.009046   -0.076922
N     0.169278   -1.530502    0.333752    0.007820    0.029836    0.098932
C    -1.013486   -0.875739    0.188129   -0.011425    0.076242    0.358043
N    -0.831970    0.606548   -0.032497   -0.036671   -0.048554   -0.064252
C     0.583167    1.266264   -0.274550   -0.003276   -0.106686   -0.410047
O    -2.113843   -1.335674    0.228076   -0.003832    0.003659   -0.099227
O     0.565830    2.420049   -0.573838    0.011308    0.025445    0.133932
H     2.239204   -1.673303    0.354845    0.014866   -0.025298   -0.136680
H     0.099186   -2.533091    0.514228    0.012000   -0.270907   -1.561573
H    -1.444922    0.886451   -0.818414   -0.416640   -0.338665    0.127642
H     2.672257    0.711579   -0.172265    0.013912    0.182260    0.662074
H    -1.242310    1.089691    0.787885    0.438043    0.337394   -0.053192
13
* Frequency(14)  645.3066
C     1.654870    0.342468   -0.058434    0.015478    0.032220    0.122966
C     1.419047   -0.969830    0.203417    0.017691   -0.009046   -0.076922
N     0.170167   -1.527112    0.344995    0.007820    0.029836    0.098932
C    -1.014785   -0.867075    0.228819   -0.011425    0.076242    0.358043
N    -0.836137    0.601030   -0.039799   -0.036671   -0.048554   -0.064252
C     0.582795    1.254140   -0.321149   -0.003276   -0.106686   -0.410047
O    -2.114279   -1.335258    0.216800   -0.003832    0.003659   -0.099227
O     0.567115    2.422941   -0.558617    0.011308    0.025445    0.133932
H     2.240893   -1.676178    0.339312    0.014866   -0.025298   -0.136680
H     0.100550   -2.563879    0.336764    0.012000   -0.270907   -1.561573
H    -1.492271    0.847963   -0.803908   -0.416640   -0.338665    0.127642
H     2.673838    0.732292   -0.097023    0.013912    0.182260    0.662074
H    -1.192529    1.128034    0.781840    0.438043    0.337394   -0.053192
13
* Frequency(14)  645.3066
C     1.656439    0.345733   -0.045974    0.015478    0.032220    0.122966
C     1.420840   -0.970746    0.195622    0.017691   -0.009046   -0.076922
N     0.170959   -1.524088    0.355020    0.007820    0.029836    0.098932
C    -1.015942   -0.859349    0.265100   -0.011425    0.076242    0.358043
N    -0.839853    0.596110   -0.046309   -0.036671   -0.048554   -0.064252
C     0.582463    1.243330   -0.362699   -0.003276   -0.106686   -0.410047
O    -2.114667   -1.334887    0.206745   -0.003832    0.003659   -0.099227
O     0.568261    2.425519   -0.545046    0.011308    0.025445    0.133932
H     2.242400   -1.678741    0.325462    0.014866   -0.025298   -0.136680
H     0.101766   -2.591330    0.178530    0.012000   -0.270907   -1.561573
H    -1.534489    0.813646   -0.790974   -0.416640   -0.338665    0.127642
H     2.675248    0.750760   -0.029935    0.013912    0.182260    0.662074
H    -1.148142    1.162222    0.776450    0.438043    0.337394   -0.053192
13
* Frequency(14)  645.3066
C     1.657647    0.348247   -0.036379    0.015478    0.032220    0.122966
C     1.422220   -0.971452    0.189620    0.017691   -0.009046   -0.076922
N     0.171570   -1.521760    0.362740    0.007820    0.029836    0.098932
C    -1.016834   -0.853400    0.293039   -0.011425    0.076242    0.358043
N    -0.842714    0.592322   -0.051323   -0.036671   -0.048554   -0.064252
C     0.582207    1.235005   -0.394697   -0.003276   -0.106686   -0.410047
O    -2.114966   -1.334602    0.199002   -0.003832    0.003659   -0.099227
O     0.569143    2.427505   -0.534595    0.011308    0.025445    0.133932
H     2.243560   -1.680715    0.314796    0.014866   -0.025298   -0.136680
H     0.102702   -2.612469    0.056675    0.012000   -0.270907   -1.561573
H    -1.567001    0.787219   -0.781014   -0.416640   -0.338665    0.127642
H     2.676333    0.764983    0.021729    0.013912    0.182260    0.662074
H    -1.113960    1.188550    0.772299    0.438043    0.337394   -0.053192
13
* Frequency(14)  645.3066
C     1.658363    0.349738   -0.030688    0.015478    0.032220    0.122966
C     1.423039   -0.971871    0.186060    0.017691   -0.009046   -0.076922
N     0.171932   -1.520379    0.367319    0.007820    0.029836    0.098932
C    -1.017363   -0.849871    0.309610   -0.011425    0.076242    0.358043
N    -0.844412    0.590074   -0.054297   -0.036671   -0.048554   -0.064252
C     0.582056    1.230067   -0.413674   -0.003276   -0.106686   -0.410047
O    -2.115144   -1.334432    0.194409   -0.003832    0.003659   -0.099227
O     0.569667    2.428683   -0.528396    0.011308    0.025445    0.133932
H     2.244248   -1.681886    0.308471    0.014866   -0.025298   -0.136680
H     0.103258   -2.625008   -0.015598    0.012000   -0.270907   -1.561573
H    -1.586284    0.771545   -0.775106   -0.416640   -0.338665    0.127642
H     2.676977    0.773418    0.052371    0.013912    0.182260    0.662074
H    -1.093686    1.204165    0.769837    0.438043    0.337394   -0.053192
13
* Frequency(14)  645.3066
C     1.658510    0.350045   -0.029518    0.015478    0.032220    0.122966
C     1.423207   -0.971957    0.185328    0.017691   -0.009046   -0.076922
N     0.172006   -1.520096    0.368260    0.007820    0.029836    0.098932
C    -1.017471   -0.849146    0.313017   -0.011425    0.076242    0.358043
N    -0.844760    0.589612   -0.054908   -0.036671   -0.048554   -0.064252
C     0.582024    1.229052   -0.417576   -0.003276   -0.106686   -0.410047
O    -2.115180   -1.334397    0.193465   -0.003832    0.003659   -0.099227
O     0.569774    2.428925   -0.527122    0.011308    0.025445    0.133932
H     2.244389   -1.682127    0.307170    0.014866   -0.025298   -0.136680
H     0.103372   -2.627585   -0.030455    0.012000   -0.270907   -1.561573
H    -1.590248    0.768323   -0.773892   -0.416640   -0.338665    0.127642
H     2.677109    0.775152    0.058670    0.013912    0.182260    0.662074
H    -1.089519    1.207375    0.769331    0.438043    0.337394   -0.053192
13
* Frequency(14)  645.3066
C     1.658072    0.349134   -0.032996    0.015478    0.032220    0.122966
C     1.422707   -0.971701    0.187504    0.017691   -0.009046   -0.076922
N     0.171785   -1.520939    0.365462    0.007820    0.029836    0.098932
C    -1.017148   -0.851302    0.302890   -0.011425    0.076242    0.358043
N    -0.843723    0.590986   -0.053091   -0.036671   -0.048554   -0.064252
C     0.582117    1.232069   -0.405978   -0.003276   -0.106686   -0.410047
O    -2.115072   -1.334501    0.196272   -0.003832    0.003659   -0.099227
O     0.569454    2.428205   -0.530910    0.011308    0.025445    0.133932
H     2.243969   -1.681411    0.311036    0.014866   -0.025298   -0.136680
H     0.103033   -2.619923    0.013712    0.012000   -0.270907   -1.561573
H    -1.578464    0.777901   -0.777502   -0.416640   -0.338665    0.127642
H     2.676716    0.769997    0.039944    0.013912    0.182260    0.662074
H    -1.101908    1.197832    0.770836    0.438043    0.337394   -0.053192
13
* Frequency(14)  645.3066
C     1.657097    0.347103   -0.040744    0.015478    0.032220    0.122966
C     1.421592   -0.971131    0.192351    0.017691   -0.009046   -0.076922
N     0.171292   -1.522820    0.359227    0.007820    0.029836    0.098932
C    -1.016428   -0.856107    0.280327   -0.011425    0.076242    0.358043
N    -0.841412    0.594046   -0.049042   -0.036671   -0.048554   -0.064252
C     0.582324    1.238792   -0.380138   -0.003276   -0.106686   -0.410047
O    -2.114830   -1.334731    0.202525   -0.003832    0.003659   -0.099227
O     0.568742    2.426602   -0.539350    0.011308    0.025445    0.133932
H     2.243032   -1.679817    0.319649    0.014866   -0.025298   -0.136680
H     0.102276   -2.602851    0.112118    0.012000   -0.270907   -1.561573
H    -1.552208    0.799243   -0.785546   -0.416640   -0.338665    0.127642
H     2.675839    0.758512   -0.001778    0.013912    0.182260    0.662074
H    -1.129513    1.176571    0.774188    0.438043    0.337394   -0.053192
13
* Frequency(14)  645.3066
C     1.655690    0.344174   -0.051925    0.015478    0.032220    0.122966
C     1.419983   -0.970309    0.199345    0.017691   -0.009046   -0.076922
N     0.170581   -1.525532    0.350232    0.007820    0.029836    0.098932
C    -1.015389   -0.863039    0.247773   -0.011425    0.076242    0.358043
N    -0.838078    0.598460   -0.043200   -0.036671   -0.048554   -0.064252
C     0.582621    1.248493   -0.342856   -0.003276   -0.106686   -0.410047
O    -2.114482   -1.335064    0.211547   -0.003832    0.003659   -0.099227
O     0.567714    2.424288   -0.551527    0.011308    0.025445    0.133932
H     2.241680   -1.677517    0.332076    0.014866   -0.025298   -0.136680
H     0.101185   -2.578220    0.254099    0.012000   -0.270907   -1.561573
H    -1.514327    0.830035   -0.797151   -0.416640   -0.338665    0.127642
H     2.674574    0.741940   -0.061975    0.013912    0.182260    0.662074
H    -1.169340    1.145894    0.779024    0.438043    0.337394   -0.053192
13
* Frequency(14)  645.3066
C     1.654003    0.340663   -0.065325    0.015478    0.032220    0.122966
C     1.418056   -0.969323    0.207727    0.017691   -0.009046   -0.076922
N     0.169729   -1.528784    0.339451    0.007820    0.029836    0.098932
C    -1.014144   -0.871347    0.208756   -0.011425    0.076242    0.358043
N    -0.834082    0.603751   -0.036198   -0.036671   -0.048554   -0.064252
C     0.582978    1.260118   -0.298172   -0.003276   -0.106686   -0.410047
O    -2.114064   -1.335463    0.222360   -0.003832    0.003659   -0.099227
O     0.566481    2.421515   -0.566122    0.011308    0.025445    0.133932
H     2.240060   -1.674760    0.346971    0.014866   -0.025298   -0.136680
H     0.099878   -2.548698    0.424269    0.012000   -0.270907   -1.561573
H    -1.468924    0.866941   -0.811061   -0.416640   -0.338665    0.127642
H     2.673058    0.722079   -0.134124    0.013912    0.182260    0.662074
H    -1.217075    1.109127    0.784821    0.438043    0.337394   -0.053192
13
* Frequency(14)  645.3066
C     1.652220    0.336950   -0.079492    0.015478    0.032220    0.122966
C     1.416017   -0.968281    0.216590    0.017691   -0.009046   -0.076922
N     0.168828   -1.532221    0.328053    0.007820    0.029836    0.098932
C    -1.012828   -0.880132    0.167503   -0.011425    0.076242    0.358043
N    -0.829857    0.609345   -0.028795   -0.036671   -0.048554   -0.064252
C     0.583356    1.272410   -0.250928   -0.003276   -0.106686   -0.410047
O    -2.113623   -1.335884    0.233793   -0.003832    0.003659   -0.099227
O     0.565178    2.418583   -0.581553    0.011308    0.025445    0.133932
H     2.238347   -1.671845    0.362719    0.014866   -0.025298   -0.136680
H     0.098495   -2.517485    0.604188    0.012000   -0.270907   -1.561573
H    -1.420920    0.905960   -0.825767   -0.416640   -0.338665    0.127642
H     2.671455    0.701080   -0.210405    0.013912    0.182260    0.662074
H    -1.267545    1.070254    0.790949    0.438043    0.337394   -0.053192
13
* Frequency(14)  645.3066
C     1.650533    0.333439   -0.092892    0.015478    0.032220    0.122966
C     1.414089   -0.967295    0.224973    0.017691   -0.009046   -0.076922
N     0.167976   -1.535472    0.317272    0.007820    0.029836    0.098932
C    -1.011583   -0.888440    0.128486   -0.011425    0.076242    0.358043
N    -0.825861    0.614636   -0.021794   -0.036671   -0.048554   -0.064252
C     0.583713    1.284036   -0.206243   -0.003276   -0.106686   -0.410047
O    -2.113205   -1.336283    0.244606   -0.003832    0.003659   -0.099227
O     0.563946    2.415811   -0.596148    0.011308    0.025445    0.133932
H     2.236727   -1.669088    0.377613    0.014866   -0.025298   -0.136680
H     0.097188   -2.487963    0.774358    0.012000   -0.270907   -1.561573
H    -1.375518    0.942866   -0.839677   -0.416640   -0.338665    0.127642
H     2.669939    0.681218   -0.282554    0.013912    0.182260    0.662074
H    -1.315280    1.033487    0.796746    0.438043    0.337394   -0.053192
13
* Frequency(14)  645.3066
C     1.649126    0.330510   -0.104073    0.015478    0.032220    0.122966
C     1.412481   -0.966473    0.231967    0.017691   -0.009046   -0.076922
N     0.167265   -1.538185    0.308276    0.007820    0.029836    0.098932
C    -1.010544   -0.895372    0.095932   -0.011425    0.076242    0.358043
N    -0.822527    0.619051   -0.015952   -0.036671   -0.048554   -0.064252
C     0.584011    1.293737   -0.168961   -0.003276   -0.106686   -0.410047
O    -2.112857   -1.336616    0.253628   -0.003832    0.003659   -0.099227
O     0.562918    2.413497   -0.608326    0.011308    0.025445    0.133932
H     2.235376   -1.666788    0.390040    0.014866   -0.025298   -0.136680
H     0.096097   -2.463332    0.916339    0.012000   -0.270907   -1.561573
H    -1.337636    0.973658   -0.851282   -0.416640   -0.338665    0.127642
H     2.668674    0.664647   -0.342751    0.013912    0.182260    0.662074
H    -1.355108    1.002810    0.801582    0.438043    0.337394   -0.053192
13
* Frequency(14)  645.3066
C     1.648150    0.328479   -0.111822    0.015478    0.032220    0.122966
C     1.411366   -0.965903    0.236814    0.017691   -0.009046   -0.076922
N     0.166772   -1.540065    0.302042    0.007820    0.029836    0.098932
C    -1.009824   -0.900177    0.073369   -0.011425    0.076242    0.358043
N    -0.820216    0.622111   -0.011903   -0.036671   -0.048554   -0.064252
C     0.584217    1.300460   -0.143121   -0.003276   -0.106686   -0.410047
O    -2.112615   -1.336846    0.259881   -0.003832    0.003659   -0.099227
O     0.562205    2.411894   -0.616766    0.011308    0.025445    0.133932
H     2.234439   -1.665194    0.398653    0.014866   -0.025298   -0.136680
H     0.095340   -2.446260    1.014745    0.012000   -0.270907   -1.561573
H    -1.311381    0.995000   -0.859326   -0.416640   -0.338665    0.127642
H     2.667798    0.653161   -0.384473    0.013912    0.182260    0.662074
H    -1.382712    0.981549    0.804934    0.438043    0.337394   -0.053192
13
* Frequency(14)  645.3066
C     1.647712    0.327568   -0.115300    0.015478    0.032220    0.122966
C     1.410866   -0.965647    0.238990    0.017691   -0.009046   -0.076922
N     0.166551   -1.540909    0.299244    0.007820    0.029836    0.098932
C    -1.009501   -0.902333    0.063242   -0.011425    0.076242    0.358043
N    -0.819179    0.623484   -0.010085   -0.036671   -0.048554   -0.064252
C     0.584310    1.303477   -0.131523   -0.003276   -0.106686   -0.410047
O    -2.112507   -1.336950    0.262687   -0.003832    0.003659   -0.099227
O     0.561886    2.411174   -0.620554    0.011308    0.025445    0.133932
H     2.234018   -1.664478    0.402519    0.014866   -0.025298   -0.136680
H     0.095001   -2.438598    1.058912    0.012000   -0.270907   -1.561573
H    -1.299596    1.004579   -0.862936   -0.416640   -0.338665    0.127642
H     2.667404    0.648006   -0.403199    0.013912    0.182260    0.662074
H    -1.395102    0.972006    0.806438    0.438043    0.337394   -0.053192
13
* Frequency(14)  645.3066
C     1.647860    0.327874   -0.114130    0.015478    0.032220    0.122966
C     1.411034   -0.965733    0.238258    0.017691   -0.009046   -0.076922
N     0.166625   -1.540625    0.300185    0.007820    0.029836    0.098932
C    -1.009610   -0.901608    0.066649   -0.011425    0.076242    0.358043
N    -0.819528    0.623022   -0.010697   -0.036671   -0.048554   -0.064252
C     0.584279    1.302462   -0.135425   -0.003276   -0.106686   -0.410047
O    -2.112543   -1.336915    0.261743   -0.003832    0.003659   -0.099227
O     0.561993    2.411416   -0.619279    0.011308    0.025445    0.133932
H     2.234160   -1.664719    0.401219    0.014866   -0.025298   -0.136680
H     0.095115   -2.441175    1.044055    0.012000   -0.270907   -1.561573
H    -1.303561    1.001356   -0.861722   -0.416640   -0.338665    0.127642
H     2.667536    0.649740   -0.396900    0.013912    0.182260    0.662074
H    -1.390934    0.975216    0.805932    0.438043    0.337394   -0.053192
13
* Frequency(14)  645.3066
C     1.648576    0.329366   -0.108439    0.015478    0.032220    0.122966
C     1.411853   -0.966151    0.234698    0.017691   -0.009046   -0.076922
N     0.166987   -1.539244    0.304764    0.007820    0.029836    0.098932
C    -1.010139   -0.898079    0.083220   -0.011425    0.076242    0.358043
N    -0.821225    0.620775   -0.013670   -0.036671   -0.048554   -0.064252
C     0.584127    1.297524   -0.154402   -0.003276   -0.106686   -0.410047
O    -2.112720   -1.336746    0.257151   -0.003832    0.003659   -0.099227
O     0.562517    2.412594   -0.613081    0.011308    0.025445    0.133932
H     2.234848   -1.665890    0.394893    0.014866   -0.025298   -0.136680
H     0.095670   -2.453713    0.971782    0.012000   -0.270907   -1.561573
H    -1.322843    0.985682   -0.855814   -0.416640   -0.338665    0.127642
H     2.668180    0.658176   -0.366258    0.013912    0.182260    0.662074
H    -1.370661    0.990831    0.803470    0.438043    0.337394   -0.053192
13
* Frequency(14)  645.3066
C     1.649784    0.331880   -0.098843    0.015478    0.032220    0.122966
C     1.413233   -0.966857    0.228695    0.017691   -0.009046   -0.076922
N     0.167597   -1.536916    0.312484    0.007820    0.029836    0.098932
C    -1.011030   -0.892129    0.111159   -0.011425    0.076242    0.358043
N    -0.824086    0.616986   -0.018684   -0.036671   -0.048554   -0.064252
C     0.583871    1.289199   -0.186400   -0.003276   -0.106686   -0.410047
O    -2.113020   -1.336460    0.249408   -0.003832    0.003659   -0.099227
O     0.563399    2.414579   -0.602630    0.011308    0.025445    0.133932
H     2.236008   -1.667864    0.384227    0.014866   -0.025298   -0.136680
H     0.096607   -2.474853    0.849927    0.012000   -0.270907   -1.561573
H    -1.355355    0.959255   -0.845854   -0.416640   -0.338665    0.127642
H     2.669266    0.672398   -0.314594    0.013912    0.182260    0.662074
H    -1.336478    1.017159    0.799320    0.438043    0.337394   -0.053192
13
* Frequency(14)  645.3066
C     1.651352    0.335145   -0.086383    0.015478    0.032220    0.122966
C     1.415026   -0.967774    0.220901    0.017691   -0.009046   -0.076922
N     0.168390   -1.533893    0.322509    0.007820    0.029836    0.098932
C    -1.012188   -0.884404    0.147440   -0.011425    0.076242    0.358043
N    -0.827802    0.612066   -0.025195   -0.036671   -0.048554   -0.064252
C     0.583539    1.278389   -0.227950   -0.003276   -0.106686   -0.410047
O    -2.113408   -1.336089    0.239353   -0.003832    0.003659   -0.099227
O     0.564545    2.417158   -0.589058    0.011308    0.025445    0.133932
H     2.237514   -1.670428    0.370378    0.014866   -0.025298   -0.136680
H     0.097823   -2.502304    0.691693    0.012000   -0.270907   -1.561573
H    -1.397573    0.924938   -0.832920   -0.416640   -0.338665    0.127642
H     2.670676    0.690866   -0.247506    0.013912    0.182260    0.662074
H    -1.292092    1.051347    0.793930    0.438043    0.337394   -0.053192
13
* Frequency(14)  645.3066
C     1.653111    0.338806   -0.072409    0.015478    0.032220    0.122966
C     1.417036   -0.968802    0.212159    0.017691   -0.009046   -0.076922
N     0.169278   -1.530502    0.333752    0.007820    0.029836    0.098932
C    -1.013486   -0.875739    0.188129   -0.011425    0.076242    0.358043
N    -0.831970    0.606548   -0.032497   -0.036671   -0.048554   -0.064252
C     0.583167    1.266264   -0.274550   -0.003276   -0.106686   -0.410047
O    -2.113843   -1.335674    0.228076   -0.003832    0.003659   -0.099227
O     0.565830    2.420049   -0.573838    0.011308    0.025445    0.133932
H     2.239204   -1.673303    0.354845    0.014866   -0.025298   -0.136680
H     0.099186   -2.533091    0.514228    0.012000   -0.270907   -1.561573
H    -1.444922    0.886451   -0.818414   -0.416640   -0.338665    0.127642
H     2.672257    0.711579   -0.172265    0.013912    0.182260    0.662074
H    -1.242310    1.089691    0.787885    0.438043    0.337394   -0.053192
