13
* (null), Energy   -1000.0000000
C     1.653111    0.338806   -0.072409    0.001194   -0.007831   -0.019044
C     1.417036   -0.968802    0.212159    0.003033    0.002758   -0.000893
N     0.169278   -1.530502    0.333752   -0.005155    0.004891    0.015862
C    -1.013486   -0.875739    0.188129    0.006289   -0.025020   -0.156106
N    -0.831970    0.606548   -0.032497   -0.000700    0.002878    0.031658
C     0.583167    1.266264   -0.274550    0.002304    0.030376    0.113192
O    -2.113843   -1.335674    0.228076   -0.012390   -0.002738    0.024500
O     0.565830    2.420049   -0.573838   -0.002586   -0.012896   -0.012965
H     2.239204   -1.673303    0.354845    0.016358    0.021897    0.015000
H     0.099186   -2.533091    0.514228    0.005715    0.008011    0.035525
H    -1.444922    0.886451   -0.818414   -0.666267   -1.113098    0.150796
H     2.672257    0.711579   -0.172265    0.003502   -0.011996   -0.011134
H    -1.242310    1.089691    0.787885    0.806985    1.232007   -0.284692
13
* Frequency(25) 1263.1153
C     1.653247    0.337916   -0.074573    0.001194   -0.007831   -0.019044
C     1.417381   -0.968488    0.212057    0.003033    0.002758   -0.000893
N     0.168693   -1.529947    0.335554   -0.005155    0.004891    0.015862
C    -1.012771   -0.878583    0.170389    0.006289   -0.025020   -0.156106
N    -0.832049    0.606875   -0.028899   -0.000700    0.002878    0.031658
C     0.583429    1.269717   -0.261686    0.002304    0.030376    0.113192
O    -2.115251   -1.335985    0.230861   -0.012390   -0.002738    0.024500
O     0.565536    2.418584   -0.575311   -0.002586   -0.012896   -0.012965
H     2.241063   -1.670814    0.356549    0.016358    0.021897    0.015000
H     0.099836   -2.532181    0.518266    0.005715    0.008011    0.035525
H    -1.520640    0.759953   -0.801277   -0.666267   -1.113098    0.150796
H     2.672655    0.710216   -0.173530    0.003502   -0.011996   -0.011134
H    -1.150600    1.229702    0.755531    0.806985    1.232007   -0.284692
13
* Frequency(25) 1263.1153
C     1.653368    0.337123   -0.076503    0.001194   -0.007831   -0.019044
C     1.417688   -0.968209    0.211967    0.003033    0.002758   -0.000893
N     0.168170   -1.529451    0.337162   -0.005155    0.004891    0.015862
C    -1.012134   -0.881118    0.154571    0.006289   -0.025020   -0.156106
N    -0.832120    0.607167   -0.025691   -0.000700    0.002878    0.031658
C     0.583662    1.272794   -0.250216    0.002304    0.030376    0.113192
O    -2.116507   -1.336262    0.233343   -0.012390   -0.002738    0.024500
O     0.565274    2.417277   -0.576625   -0.002586   -0.012896   -0.012965
H     2.242721   -1.668595    0.358069    0.016358    0.021897    0.015000
H     0.100415   -2.531369    0.521865    0.005715    0.008011    0.035525
H    -1.588153    0.647163   -0.785997   -0.666267   -1.113098    0.150796
H     2.673010    0.709001   -0.174658    0.003502   -0.011996   -0.011134
H    -1.068829    1.354541    0.726683    0.806985    1.232007   -0.284692
13
* Frequency(25) 1263.1153
C     1.653461    0.336512   -0.077989    0.001194   -0.007831   -0.019044
C     1.417925   -0.967994    0.211897    0.003033    0.002758   -0.000893
N     0.167768   -1.529069    0.338400   -0.005155    0.004891    0.015862
C    -1.011643   -0.883070    0.142389    0.006289   -0.025020   -0.156106
N    -0.832175    0.607392   -0.023221   -0.000700    0.002878    0.031658
C     0.583842    1.275165   -0.241383    0.002304    0.030376    0.113192
O    -2.117474   -1.336476    0.235255   -0.012390   -0.002738    0.024500
O     0.565072    2.416271   -0.577636   -0.002586   -0.012896   -0.012965
H     2.243997   -1.666887    0.359240    0.016358    0.021897    0.015000
H     0.100861   -2.530744    0.524637    0.005715    0.008011    0.035525
H    -1.640144    0.560304   -0.774230   -0.666267   -1.113098    0.150796
H     2.673283    0.708064   -0.175527    0.003502   -0.011996   -0.011134
H    -1.005857    1.450679    0.704468    0.806985    1.232007   -0.284692
13
* Frequency(25) 1263.1153
C     1.653516    0.336149   -0.078870    0.001194   -0.007831   -0.019044
C     1.418065   -0.967866    0.211856    0.003033    0.002758   -0.000893
N     0.167529   -1.528843    0.339134   -0.005155    0.004891    0.015862
C    -1.011352   -0.884228    0.135164    0.006289   -0.025020   -0.156106
N    -0.832207    0.607525   -0.021755   -0.000700    0.002878    0.031658
C     0.583949    1.276571   -0.236145    0.002304    0.030376    0.113192
O    -2.118047   -1.336603    0.236389   -0.012390   -0.002738    0.024500
O     0.564953    2.415674   -0.578237   -0.002586   -0.012896   -0.012965
H     2.244754   -1.665873    0.359934    0.016358    0.021897    0.015000
H     0.101126   -2.530373    0.526282    0.005715    0.008011    0.035525
H    -1.670980    0.508788   -0.767250   -0.666267   -1.113098    0.150796
H     2.673445    0.707509   -0.176042    0.003502   -0.011996   -0.011134
H    -0.968508    1.507698    0.691292    0.806985    1.232007   -0.284692
13
* Frequency(25) 1263.1153
C     1.653528    0.336075   -0.079051    0.001194   -0.007831   -0.019044
C     1.418094   -0.967840    0.211847    0.003033    0.002758   -0.000893
N     0.167480   -1.528796    0.339285   -0.005155    0.004891    0.015862
C    -1.011293   -0.884466    0.133679    0.006289   -0.025020   -0.156106
N    -0.832214    0.607552   -0.021454   -0.000700    0.002878    0.031658
C     0.583971    1.276860   -0.235068    0.002304    0.030376    0.113192
O    -2.118165   -1.336629    0.236622   -0.012390   -0.002738    0.024500
O     0.564928    2.415551   -0.578360   -0.002586   -0.012896   -0.012965
H     2.244910   -1.665665    0.360077    0.016358    0.021897    0.015000
H     0.101180   -2.530297    0.526620    0.005715    0.008011    0.035525
H    -1.677319    0.498197   -0.765816   -0.666267   -1.113098    0.150796
H     2.673478    0.707395   -0.176148    0.003502   -0.011996   -0.011134
H    -0.960830    1.519420    0.688583    0.806985    1.232007   -0.284692
13
* Frequency(25) 1263.1153
C     1.653494    0.336296   -0.078513    0.001194   -0.007831   -0.019044
C     1.418008   -0.967918    0.211872    0.003033    0.002758   -0.000893
N     0.167626   -1.528935    0.338836   -0.005155    0.004891    0.015862
C    -1.011470   -0.883759    0.138094    0.006289   -0.025020   -0.156106
N    -0.832194    0.607471   -0.022350   -0.000700    0.002878    0.031658
C     0.583906    1.276001   -0.238269    0.002304    0.030376    0.113192
O    -2.117814   -1.336551    0.235929   -0.012390   -0.002738    0.024500
O     0.565001    2.415916   -0.577993   -0.002586   -0.012896   -0.012965
H     2.244447   -1.666284    0.359653    0.016358    0.021897    0.015000
H     0.101018   -2.530524    0.525615    0.005715    0.008011    0.035525
H    -1.658475    0.529680   -0.770081   -0.666267   -1.113098    0.150796
H     2.673379    0.707734   -0.175833    0.003502   -0.011996   -0.011134
H    -0.983655    1.484574    0.696635    0.806985    1.232007   -0.284692
13
* Frequency(25) 1263.1153
C     1.653419    0.336790   -0.077313    0.001194   -0.007831   -0.019044
C     1.417817   -0.968092    0.211929    0.003033    0.002758   -0.000893
N     0.167951   -1.529243    0.337836   -0.005155    0.004891    0.015862
C    -1.011867   -0.882182    0.147932    0.006289   -0.025020   -0.156106
N    -0.832150    0.607289   -0.024345   -0.000700    0.002878    0.031658
C     0.583760    1.274086   -0.245402    0.002304    0.030376    0.113192
O    -2.117034   -1.336379    0.234385   -0.012390   -0.002738    0.024500
O     0.565164    2.416728   -0.577176   -0.002586   -0.012896   -0.012965
H     2.243416   -1.667664    0.358707    0.016358    0.021897    0.015000
H     0.100658   -2.531028    0.523376    0.005715    0.008011    0.035525
H    -1.616488    0.599824   -0.779584   -0.666267   -1.113098    0.150796
H     2.673159    0.708490   -0.175132    0.003502   -0.011996   -0.011134
H    -1.034509    1.406937    0.714576    0.806985    1.232007   -0.284692
13
* Frequency(25) 1263.1153
C     1.653310    0.337502   -0.075581    0.001194   -0.007831   -0.019044
C     1.417542   -0.968342    0.212010    0.003033    0.002758   -0.000893
N     0.168420   -1.529688    0.336394   -0.005155    0.004891    0.015862
C    -1.012439   -0.879907    0.162125    0.006289   -0.025020   -0.156106
N    -0.832086    0.607028   -0.027223   -0.000700    0.002878    0.031658
C     0.583551    1.271325   -0.255694    0.002304    0.030376    0.113192
O    -2.115907   -1.336130    0.232158   -0.012390   -0.002738    0.024500
O     0.565399    2.417901   -0.575997   -0.002586   -0.012896   -0.012965
H     2.241929   -1.669655    0.357343    0.016358    0.021897    0.015000
H     0.100139   -2.531757    0.520146    0.005715    0.008011    0.035525
H    -1.555910    0.701029   -0.793294   -0.666267   -1.113098    0.150796
H     2.672840    0.709581   -0.174119    0.003502   -0.011996   -0.011134
H    -1.107881    1.294920    0.740460    0.806985    1.232007   -0.284692
13
* Frequency(25) 1263.1153
C     1.653180    0.338355   -0.073506    0.001194   -0.007831   -0.019044
C     1.417211   -0.968643    0.212107    0.003033    0.002758   -0.000893
N     0.168981   -1.530221    0.334666   -0.005155    0.004891    0.015862
C    -1.013124   -0.877181    0.179136    0.006289   -0.025020   -0.156106
N    -0.832010    0.606714   -0.030673   -0.000700    0.002878    0.031658
C     0.583300    1.268014   -0.268029    0.002304    0.030376    0.113192
O    -2.114557   -1.335831    0.229488   -0.012390   -0.002738    0.024500
O     0.565681    2.419306   -0.574585   -0.002586   -0.012896   -0.012965
H     2.240146   -1.672041    0.355709    0.016358    0.021897    0.015000
H     0.099516   -2.532630    0.516275    0.005715    0.008011    0.035525
H    -1.483305    0.822327   -0.809727   -0.666267   -1.113098    0.150796
H     2.672459    0.710888   -0.172906    0.003502   -0.011996   -0.011134
H    -1.195821    1.160664    0.771484    0.806985    1.232007   -0.284692
13
* Frequency(25) 1263.1153
C     1.653043    0.339258   -0.071311    0.001194   -0.007831   -0.019044
C     1.416862   -0.968961    0.212210    0.003033    0.002758   -0.000893
N     0.169575   -1.530784    0.332838   -0.005155    0.004891    0.015862
C    -1.013849   -0.874298    0.197122    0.006289   -0.025020   -0.156106
N    -0.831929    0.606383   -0.034321   -0.000700    0.002878    0.031658
C     0.583034    1.264515   -0.281070    0.002304    0.030376    0.113192
O    -2.113130   -1.335516    0.226665   -0.012390   -0.002738    0.024500
O     0.565979    2.420792   -0.573091   -0.002586   -0.012896   -0.012965
H     2.238262   -1.674564    0.353981    0.016358    0.021897    0.015000
H     0.098857   -2.533553    0.512182    0.005715    0.008011    0.035525
H    -1.406540    0.950574   -0.827101   -0.666267   -1.113098    0.150796
H     2.672055    0.712270   -0.171623    0.003502   -0.011996   -0.011134
H    -1.288799    1.018717    0.804285    0.806985    1.232007   -0.284692
13
* Frequency(25) 1263.1153
C     1.652912    0.340111   -0.069236    0.001194   -0.007831   -0.019044
C     1.416531   -0.969261    0.212308    0.003033    0.002758   -0.000893
N     0.170137   -1.531317    0.331109   -0.005155    0.004891    0.015862
C    -1.014534   -0.871572    0.214134    0.006289   -0.025020   -0.156106
N    -0.831853    0.606069   -0.037771   -0.000700    0.002878    0.031658
C     0.582783    1.261204   -0.293405    0.002304    0.030376    0.113192
O    -2.111779   -1.335217    0.223995   -0.012390   -0.002738    0.024500
O     0.566261    2.422198   -0.571678   -0.002586   -0.012896   -0.012965
H     2.236479   -1.676950    0.352346    0.016358    0.021897    0.015000
H     0.098234   -2.534426    0.508311    0.005715    0.008011    0.035525
H    -1.333934    1.071872   -0.843534   -0.666267   -1.113098    0.150796
H     2.671673    0.713578   -0.170410    0.003502   -0.011996   -0.011134
H    -1.376739    0.884461    0.835309    0.806985    1.232007   -0.284692
13
* Frequency(25) 1263.1153
C     1.652804    0.340823   -0.067505    0.001194   -0.007831   -0.019044
C     1.416256   -0.969512    0.212389    0.003033    0.002758   -0.000893
N     0.170606   -1.531762    0.329667   -0.005155    0.004891    0.015862
C    -1.015106   -0.869297    0.228327    0.006289   -0.025020   -0.156106
N    -0.831789    0.605807   -0.040649   -0.000700    0.002878    0.031658
C     0.582574    1.258443   -0.303697    0.002304    0.030376    0.113192
O    -2.110653   -1.334968    0.221767   -0.012390   -0.002738    0.024500
O     0.566496    2.423370   -0.570499   -0.002586   -0.012896   -0.012965
H     2.234992   -1.678941    0.350982    0.016358    0.021897    0.015000
H     0.097715   -2.535154    0.505081    0.005715    0.008011    0.035525
H    -1.273356    1.173077   -0.857244   -0.666267   -1.113098    0.150796
H     2.671355    0.714668   -0.169398    0.003502   -0.011996   -0.011134
H    -1.450112    0.772445    0.861194    0.806985    1.232007   -0.284692
13
* Frequency(25) 1263.1153
C     1.652729    0.341316   -0.066304    0.001194   -0.007831   -0.019044
C     1.416064   -0.969686    0.212445    0.003033    0.002758   -0.000893
N     0.170931   -1.532070    0.328668   -0.005155    0.004891    0.015862
C    -1.015502   -0.867720    0.238165    0.006289   -0.025020   -0.156106
N    -0.831745    0.605626   -0.042644   -0.000700    0.002878    0.031658
C     0.582429    1.256528   -0.310830    0.002304    0.030376    0.113192
O    -2.109872   -1.334796    0.220223   -0.012390   -0.002738    0.024500
O     0.566659    2.424183   -0.569682   -0.002586   -0.012896   -0.012965
H     2.233961   -1.680321    0.350037    0.016358    0.021897    0.015000
H     0.097355   -2.535659    0.502842    0.005715    0.008011    0.035525
H    -1.231370    1.243221   -0.866747   -0.666267   -1.113098    0.150796
H     2.671134    0.715424   -0.168696    0.003502   -0.011996   -0.011134
H    -1.500966    0.694807    0.879135    0.806985    1.232007   -0.284692
13
* Frequency(25) 1263.1153
C     1.652695    0.341538   -0.065766    0.001194   -0.007831   -0.019044
C     1.415979   -0.969764    0.212470    0.003033    0.002758   -0.000893
N     0.171076   -1.532208    0.328219   -0.005155    0.004891    0.015862
C    -1.015680   -0.867012    0.242580    0.006289   -0.025020   -0.156106
N    -0.831725    0.605544   -0.043539   -0.000700    0.002878    0.031658
C     0.582363    1.255669   -0.314031    0.002304    0.030376    0.113192
O    -2.109522   -1.334718    0.219531   -0.012390   -0.002738    0.024500
O     0.566732    2.424548   -0.569316   -0.002586   -0.012896   -0.012965
H     2.233498   -1.680940    0.349613    0.016358    0.021897    0.015000
H     0.097193   -2.535886    0.501837    0.005715    0.008011    0.035525
H    -1.212525    1.274704   -0.871012   -0.666267   -1.113098    0.150796
H     2.671035    0.715763   -0.168381    0.003502   -0.011996   -0.011134
H    -1.523790    0.659961    0.887187    0.806985    1.232007   -0.284692
13
* Frequency(25) 1263.1153
C     1.652706    0.341463   -0.065947    0.001194   -0.007831   -0.019044
C     1.416007   -0.969738    0.212462    0.003033    0.002758   -0.000893
N     0.171027   -1.532162    0.328370   -0.005155    0.004891    0.015862
C    -1.015620   -0.867250    0.241095    0.006289   -0.025020   -0.156106
N    -0.831732    0.605572   -0.043238   -0.000700    0.002878    0.031658
C     0.582385    1.255958   -0.312954    0.002304    0.030376    0.113192
O    -2.109640   -1.334745    0.219764   -0.012390   -0.002738    0.024500
O     0.566707    2.424425   -0.569439   -0.002586   -0.012896   -0.012965
H     2.233654   -1.680732    0.349755    0.016358    0.021897    0.015000
H     0.097247   -2.535810    0.502175    0.005715    0.008011    0.035525
H    -1.218864    1.264114   -0.869578   -0.666267   -1.113098    0.150796
H     2.671069    0.715649   -0.168487    0.003502   -0.011996   -0.011134
H    -1.516112    0.671683    0.884478    0.806985    1.232007   -0.284692
13
* Frequency(25) 1263.1153
C     1.652761    0.341101   -0.066828    0.001194   -0.007831   -0.019044
C     1.416148   -0.969610    0.212421    0.003033    0.002758   -0.000893
N     0.170789   -1.531936    0.329104   -0.005155    0.004891    0.015862
C    -1.015329   -0.868408    0.233870    0.006289   -0.025020   -0.156106
N    -0.831764    0.605705   -0.041773   -0.000700    0.002878    0.031658
C     0.582492    1.257364   -0.307716    0.002304    0.030376    0.113192
O    -2.110213   -1.334871    0.220898   -0.012390   -0.002738    0.024500
O     0.566587    2.423828   -0.570039   -0.002586   -0.012896   -0.012965
H     2.234411   -1.679718    0.350450    0.016358    0.021897    0.015000
H     0.097512   -2.535439    0.503819    0.005715    0.008011    0.035525
H    -1.249700    1.212598   -0.862598   -0.666267   -1.113098    0.150796
H     2.671231    0.715094   -0.169002    0.003502   -0.011996   -0.011134
H    -1.478764    0.728702    0.871302    0.806985    1.232007   -0.284692
13
* Frequency(25) 1263.1153
C     1.652855    0.340490   -0.068315    0.001194   -0.007831   -0.019044
C     1.416384   -0.969395    0.212351    0.003033    0.002758   -0.000893
N     0.170386   -1.531554    0.330342   -0.005155    0.004891    0.015862
C    -1.014838   -0.870361    0.221688    0.006289   -0.025020   -0.156106
N    -0.831819    0.605930   -0.039303   -0.000700    0.002878    0.031658
C     0.582672    1.259734   -0.298883    0.002304    0.030376    0.113192
O    -2.111180   -1.335085    0.222809   -0.012390   -0.002738    0.024500
O     0.566386    2.422822   -0.571051   -0.002586   -0.012896   -0.012965
H     2.235687   -1.678010    0.351620    0.016358    0.021897    0.015000
H     0.097958   -2.534814    0.506591    0.005715    0.008011    0.035525
H    -1.301692    1.125738   -0.850831   -0.666267   -1.113098    0.150796
H     2.671504    0.714158   -0.169871    0.003502   -0.011996   -0.011134
H    -1.415791    0.824840    0.849086    0.806985    1.232007   -0.284692
13
* Frequency(25) 1263.1153
C     1.652976    0.339696   -0.070244    0.001194   -0.007831   -0.019044
C     1.416692   -0.969115    0.212260    0.003033    0.002758   -0.000893
N     0.169864   -1.531058    0.331949   -0.005155    0.004891    0.015862
C    -1.014201   -0.872896    0.205870    0.006289   -0.025020   -0.156106
N    -0.831890    0.606221   -0.036095   -0.000700    0.002878    0.031658
C     0.582905    1.262812   -0.287413    0.002304    0.030376    0.113192
O    -2.112435   -1.335362    0.225292   -0.012390   -0.002738    0.024500
O     0.566124    2.421515   -0.572364   -0.002586   -0.012896   -0.012965
H     2.237345   -1.675791    0.353140    0.016358    0.021897    0.015000
H     0.098537   -2.534002    0.510191    0.005715    0.008011    0.035525
H    -1.369204    1.012948   -0.835551   -0.666267   -1.113098    0.150796
H     2.671859    0.712943   -0.170999    0.003502   -0.011996   -0.011134
H    -1.334020    0.949679    0.820239    0.806985    1.232007   -0.284692
13
* Frequency(25) 1263.1153
C     1.653111    0.338806   -0.072409    0.001194   -0.007831   -0.019044
C     1.417036   -0.968802    0.212159    0.003033    0.002758   -0.000893
N     0.169278   -1.530502    0.333752   -0.005155    0.004891    0.015862
C    -1.013486   -0.875739    0.188129    0.006289   -0.025020   -0.156106
N    -0.831970    0.606548   -0.032497   -0.000700    0.002878    0.031658
C     0.583167    1.266264   -0.274550    0.002304    0.030376    0.113192
O    -2.113843   -1.335674    0.228076   -0.012390   -0.002738    0.024500
O     0.565830    2.420049   -0.573838   -0.002586   -0.012896   -0.012965
H     2.239204   -1.673303    0.354845    0.016358    0.021897    0.015000
H     0.099186   -2.533091    0.514228    0.005715    0.008011    0.035525
H    -1.444922    0.886451   -0.818414   -0.666267   -1.113098    0.150796
H     2.672257    0.711579   -0.172265    0.003502   -0.011996   -0.011134
H    -1.242310    1.089691    0.787885    0.806985    1.232007   -0.284692
