13
* (null), Energy   -1000.0000000
C     1.653111    0.338806   -0.072409   -0.003021    0.003919    0.020099
C     1.417036   -0.968802    0.212159    0.001070    0.009670    0.050351
N     0.169278   -1.530502    0.333752   -0.000389    0.011347    0.063208
C    -1.013486   -0.875739    0.188129    0.005970    0.015690    0.014243
N    -0.831970    0.606548   -0.032497    0.032824    0.097723    0.542157
C     0.583167    1.266264   -0.274550   -0.015666   -0.015345   -0.014105
O    -2.113843   -1.335674    0.228076    0.011298   -0.028851   -0.378376
O     0.565830    2.420049   -0.573838   -0.045244   -0.096777   -0.325884
H     2.239204   -1.673303    0.354845    0.001343    0.000415    0.002858
H     0.099186   -2.533091    0.514228   -0.003460   -0.024516   -0.135891
H    -1.444922    0.886451   -0.818414   -0.465151    0.558927    1.103371
H     2.672257    0.711579   -0.172265   -0.007003   -0.017870   -0.101818
H    -1.242310    1.089691    0.787885    0.701121   -0.204655    1.056351
13
* Frequency(6)   83.1418
C     1.652768    0.339252   -0.070124   -0.003021    0.003919    0.020099
C     1.417158   -0.967703    0.217881    0.001070    0.009670    0.050351
N     0.169234   -1.529213    0.340935   -0.000389    0.011347    0.063208
C    -1.012808   -0.873956    0.189748    0.005970    0.015690    0.014243
N    -0.828239    0.617654    0.029117    0.032824    0.097723    0.542157
C     0.581387    1.264521   -0.276153   -0.015666   -0.015345   -0.014105
O    -2.112559   -1.338952    0.185076    0.011298   -0.028851   -0.378376
O     0.560688    2.409051   -0.610873   -0.045244   -0.096777   -0.325884
H     2.239357   -1.673255    0.355170    0.001343    0.000415    0.002858
H     0.098793   -2.535877    0.498785   -0.003460   -0.024516   -0.135891
H    -1.497784    0.949970   -0.693022   -0.465151    0.558927    1.103371
H     2.671461    0.709548   -0.183836   -0.007003   -0.017870   -0.101818
H    -1.162631    1.066433    0.907934    0.701121   -0.204655    1.056351
13
* Frequency(6)   83.1418
C     1.652462    0.339649   -0.068088   -0.003021    0.003919    0.020099
C     1.417266   -0.966723    0.222983    0.001070    0.009670    0.050351
N     0.169195   -1.528063    0.347340   -0.000389    0.011347    0.063208
C    -1.012203   -0.872366    0.191191    0.005970    0.015690    0.014243
N    -0.824913    0.627556    0.084053    0.032824    0.097723    0.542157
C     0.579799    1.262966   -0.277582   -0.015666   -0.015345   -0.014105
O    -2.111415   -1.341876    0.146735    0.011298   -0.028851   -0.378376
O     0.556103    2.399245   -0.643894   -0.045244   -0.096777   -0.325884
H     2.239493   -1.673213    0.355459    0.001343    0.000415    0.002858
H     0.098443   -2.538362    0.485015   -0.003460   -0.024516   -0.135891
H    -1.544918    1.006606   -0.581217   -0.465151    0.558927    1.103371
H     2.670751    0.707738   -0.194153   -0.007003   -0.017870   -0.101818
H    -1.091587    1.045695    1.014973    0.701121   -0.204655    1.056351
13
* Frequency(6)   83.1418
C     1.652226    0.339955   -0.066519   -0.003021    0.003919    0.020099
C     1.417350   -0.965968    0.226912    0.001070    0.009670    0.050351
N     0.169164   -1.527178    0.352272   -0.000389    0.011347    0.063208
C    -1.011737   -0.871142    0.192303    0.005970    0.015690    0.014243
N    -0.822352    0.635182    0.126360    0.032824    0.097723    0.542157
C     0.578577    1.261768   -0.278682   -0.015666   -0.015345   -0.014105
O    -2.110533   -1.344127    0.117209    0.011298   -0.028851   -0.378376
O     0.552573    2.391693   -0.669324   -0.045244   -0.096777   -0.325884
H     2.239597   -1.673181    0.355682    0.001343    0.000415    0.002858
H     0.098173   -2.540275    0.474411   -0.003460   -0.024516   -0.135891
H    -1.581215    1.050221   -0.495117   -0.465151    0.558927    1.103371
H     2.670205    0.706343   -0.202098   -0.007003   -0.017870   -0.101818
H    -1.036876    1.029725    1.097405    0.701121   -0.204655    1.056351
13
* Frequency(6)   83.1418
C     1.652086    0.340136   -0.065589   -0.003021    0.003919    0.020099
C     1.417399   -0.965521    0.229242    0.001070    0.009670    0.050351
N     0.169147   -1.526652    0.355198   -0.000389    0.011347    0.063208
C    -1.011461   -0.870416    0.192962    0.005970    0.015690    0.014243
N    -0.820833    0.639705    0.151452    0.032824    0.097723    0.542157
C     0.577852    1.261058   -0.279335   -0.015666   -0.015345   -0.014105
O    -2.110010   -1.345462    0.099697    0.011298   -0.028851   -0.378376
O     0.550479    2.387214   -0.684407   -0.045244   -0.096777   -0.325884
H     2.239660   -1.673162    0.355814    0.001343    0.000415    0.002858
H     0.098012   -2.541409    0.468122   -0.003460   -0.024516   -0.135891
H    -1.602744    1.076089   -0.444051   -0.465151    0.558927    1.103371
H     2.669881    0.705516   -0.206810   -0.007003   -0.017870   -0.101818
H    -1.004427    1.020253    1.146294    0.701121   -0.204655    1.056351
13
* Frequency(6)   83.1418
C     1.652058    0.340173   -0.065398   -0.003021    0.003919    0.020099
C     1.417410   -0.965429    0.229721    0.001070    0.009670    0.050351
N     0.169143   -1.526544    0.355799   -0.000389    0.011347    0.063208
C    -1.011404   -0.870267    0.193098    0.005970    0.015690    0.014243
N    -0.820520    0.640635    0.156610    0.032824    0.097723    0.542157
C     0.577703    1.260912   -0.279470   -0.015666   -0.015345   -0.014105
O    -2.109902   -1.345737    0.096097    0.011298   -0.028851   -0.378376
O     0.550048    2.386293   -0.687507   -0.045244   -0.096777   -0.325884
H     2.239672   -1.673158    0.355842    0.001343    0.000415    0.002858
H     0.097980   -2.541643    0.466829   -0.003460   -0.024516   -0.135891
H    -1.607169    1.081407   -0.433553   -0.465151    0.558927    1.103371
H     2.669814    0.705346   -0.207779   -0.007003   -0.017870   -0.101818
H    -0.997756    1.018306    1.156345    0.701121   -0.204655    1.056351
13
* Frequency(6)   83.1418
C     1.652143    0.340063   -0.065966   -0.003021    0.003919    0.020099
C     1.417379   -0.965702    0.228297    0.001070    0.009670    0.050351
N     0.169154   -1.526865    0.354011   -0.000389    0.011347    0.063208
C    -1.011573   -0.870710    0.192695    0.005970    0.015690    0.014243
N    -0.821449    0.637871    0.141276    0.032824    0.097723    0.542157
C     0.578146    1.261346   -0.279071   -0.015666   -0.015345   -0.014105
O    -2.110222   -1.344921    0.106799    0.011298   -0.028851   -0.378376
O     0.551328    2.389030   -0.678290   -0.045244   -0.096777   -0.325884
H     2.239634   -1.673169    0.355761    0.001343    0.000415    0.002858
H     0.098077   -2.540949    0.470672   -0.003460   -0.024516   -0.135891
H    -1.594013    1.065598   -0.464761   -0.465151    0.558927    1.103371
H     2.670012    0.705852   -0.204899   -0.007003   -0.017870   -0.101818
H    -1.017586    1.024094    1.126467    0.701121   -0.204655    1.056351
13
* Frequency(6)   83.1418
C     1.652333    0.339816   -0.067233   -0.003021    0.003919    0.020099
C     1.417312   -0.966312    0.225124    0.001070    0.009670    0.050351
N     0.169178   -1.527580    0.350028   -0.000389    0.011347    0.063208
C    -1.011949   -0.871699    0.191797    0.005970    0.015690    0.014243
N    -0.823517    0.631712    0.107111    0.032824    0.097723    0.542157
C     0.579133    1.262313   -0.278182   -0.015666   -0.015345   -0.014105
O    -2.110934   -1.343103    0.130643    0.011298   -0.028851   -0.378376
O     0.554179    2.395129   -0.657754   -0.045244   -0.096777   -0.325884
H     2.239550   -1.673196    0.355581    0.001343    0.000415    0.002858
H     0.098295   -2.539404    0.479236   -0.003460   -0.024516   -0.135891
H    -1.564700    1.030376   -0.534292   -0.465151    0.558927    1.103371
H     2.670453    0.706978   -0.198483   -0.007003   -0.017870   -0.101818
H    -1.061769    1.036991    1.059899    0.701121   -0.204655    1.056351
13
* Frequency(6)   83.1418
C     1.652608    0.339459   -0.069060   -0.003021    0.003919    0.020099
C     1.417215   -0.967191    0.220546    0.001070    0.009670    0.050351
N     0.169214   -1.528612    0.344281   -0.000389    0.011347    0.063208
C    -1.012492   -0.873126    0.190502    0.005970    0.015690    0.014243
N    -0.826502    0.622827    0.057817    0.032824    0.097723    0.542157
C     0.580558    1.263708   -0.276899   -0.015666   -0.015345   -0.014105
O    -2.111961   -1.340480    0.165046    0.011298   -0.028851   -0.378376
O     0.558293    2.403928   -0.628124   -0.045244   -0.096777   -0.325884
H     2.239428   -1.673233    0.355321    0.001343    0.000415    0.002858
H     0.098610   -2.537175    0.491591   -0.003460   -0.024516   -0.135891
H    -1.522408    0.979558   -0.634613   -0.465151    0.558927    1.103371
H     2.671090    0.708603   -0.189226   -0.007003   -0.017870   -0.101818
H    -1.125516    1.055599    0.963854    0.701121   -0.204655    1.056351
13
* Frequency(6)   83.1418
C     1.652937    0.339032   -0.071251   -0.003021    0.003919    0.020099
C     1.417098   -0.968245    0.215059    0.001070    0.009670    0.050351
N     0.169256   -1.529849    0.337393   -0.000389    0.011347    0.063208
C    -1.013142   -0.874836    0.188950    0.005970    0.015690    0.014243
N    -0.830079    0.612178   -0.001264    0.032824    0.097723    0.542157
C     0.582265    1.265380   -0.275362   -0.015666   -0.015345   -0.014105
O    -2.113192   -1.337336    0.206279    0.011298   -0.028851   -0.378376
O     0.563223    2.414474   -0.592611   -0.045244   -0.096777   -0.325884
H     2.239281   -1.673279    0.355009    0.001343    0.000415    0.002858
H     0.098987   -2.534504    0.506400   -0.003460   -0.024516   -0.135891
H    -1.471719    0.918649   -0.754851   -0.465151    0.558927    1.103371
H     2.671853    0.710550   -0.178130   -0.007003   -0.017870   -0.101818
H    -1.201920    1.077901    0.848739    0.701121   -0.204655    1.056351
13
* Frequency(6)   83.1418
C     1.653285    0.338581   -0.073566   -0.003021    0.003919    0.020099
C     1.416975   -0.969359    0.209258    0.001070    0.009670    0.050351
N     0.169301   -1.531156    0.330111   -0.000389    0.011347    0.063208
C    -1.013830   -0.876643    0.187309    0.005970    0.015690    0.014243
N    -0.833860    0.600919   -0.063729    0.032824    0.097723    0.542157
C     0.584070    1.267148   -0.273737   -0.015666   -0.015345   -0.014105
O    -2.114494   -1.334012    0.249874    0.011298   -0.028851   -0.378376
O     0.568436    2.425624   -0.555064   -0.045244   -0.096777   -0.325884
H     2.239127   -1.673326    0.354680    0.001343    0.000415    0.002858
H     0.099386   -2.531679    0.522057   -0.003460   -0.024516   -0.135891
H    -1.418126    0.854252   -0.881977   -0.465151    0.558927    1.103371
H     2.672660    0.712609   -0.166399   -0.007003   -0.017870   -0.101818
H    -1.282700    1.101480    0.727030    0.701121   -0.204655    1.056351
13
* Frequency(6)   83.1418
C     1.653614    0.338154   -0.075757   -0.003021    0.003919    0.020099
C     1.416858   -0.970413    0.203771    0.001070    0.009670    0.050351
N     0.169343   -1.532393    0.323223   -0.000389    0.011347    0.063208
C    -1.014481   -0.878353    0.185757    0.005970    0.015690    0.014243
N    -0.837437    0.590269   -0.122810    0.032824    0.097723    0.542157
C     0.585777    1.268821   -0.272200   -0.015666   -0.015345   -0.014105
O    -2.115725   -1.330868    0.291107    0.011298   -0.028851   -0.378376
O     0.573367    2.436171   -0.519551   -0.045244   -0.096777   -0.325884
H     2.238980   -1.673372    0.354369    0.001343    0.000415    0.002858
H     0.099763   -2.529008    0.536865   -0.003460   -0.024516   -0.135891
H    -1.367437    0.793344   -1.002215   -0.465151    0.558927    1.103371
H     2.673423    0.714556   -0.155304   -0.007003   -0.017870   -0.101818
H    -1.359104    1.123782    0.611916    0.701121   -0.204655    1.056351
13
* Frequency(6)   83.1418
C     1.653889    0.337797   -0.077584   -0.003021    0.003919    0.020099
C     1.416761   -0.971292    0.199193    0.001070    0.009670    0.050351
N     0.169378   -1.533424    0.317476   -0.000389    0.011347    0.063208
C    -1.015024   -0.879780    0.184462    0.005970    0.015690    0.014243
N    -0.840422    0.581384   -0.172104    0.032824    0.097723    0.542157
C     0.587201    1.270216   -0.270917   -0.015666   -0.015345   -0.014105
O    -2.116753   -1.328245    0.325509    0.011298   -0.028851   -0.378376
O     0.577480    2.444970   -0.489922   -0.045244   -0.096777   -0.325884
H     2.238858   -1.673409    0.354109    0.001343    0.000415    0.002858
H     0.100077   -2.526779    0.549221   -0.003460   -0.024516   -0.135891
H    -1.325144    0.742525   -1.102536   -0.465151    0.558927    1.103371
H     2.674060    0.716181   -0.146046   -0.007003   -0.017870   -0.101818
H    -1.422851    1.142390    0.515871    0.701121   -0.204655    1.056351
13
* Frequency(6)   83.1418
C     1.654079    0.337550   -0.078851   -0.003021    0.003919    0.020099
C     1.416694   -0.971901    0.196020    0.001070    0.009670    0.050351
N     0.169403   -1.534139    0.313492   -0.000389    0.011347    0.063208
C    -1.015400   -0.880768    0.183564    0.005970    0.015690    0.014243
N    -0.842490    0.575226   -0.206269    0.032824    0.097723    0.542157
C     0.588188    1.271183   -0.270029   -0.015666   -0.015345   -0.014105
O    -2.117465   -1.326426    0.349354    0.011298   -0.028851   -0.378376
O     0.580332    2.451068   -0.469385   -0.045244   -0.096777   -0.325884
H     2.238773   -1.673436    0.353929    0.001343    0.000415    0.002858
H     0.100295   -2.525234    0.557784   -0.003460   -0.024516   -0.135891
H    -1.295832    0.707303   -1.172067   -0.465151    0.558927    1.103371
H     2.674501    0.717307   -0.139630   -0.007003   -0.017870   -0.101818
H    -1.467034    1.155287    0.449302    0.701121   -0.204655    1.056351
13
* Frequency(6)   83.1418
C     1.654165    0.337439   -0.079419   -0.003021    0.003919    0.020099
C     1.416663   -0.972175    0.194596    0.001070    0.009670    0.050351
N     0.169414   -1.534460    0.311705   -0.000389    0.011347    0.063208
C    -1.015569   -0.881212    0.183161    0.005970    0.015690    0.014243
N    -0.843419    0.572462   -0.221604    0.032824    0.097723    0.542157
C     0.588631    1.271617   -0.269630   -0.015666   -0.015345   -0.014105
O    -2.117784   -1.325610    0.360055    0.011298   -0.028851   -0.378376
O     0.581611    2.453805   -0.460168   -0.045244   -0.096777   -0.325884
H     2.238735   -1.673447    0.353848    0.001343    0.000415    0.002858
H     0.100393   -2.524540    0.561628   -0.003460   -0.024516   -0.135891
H    -1.282675    0.691494   -1.203275   -0.465151    0.558927    1.103371
H     2.674700    0.717812   -0.136750   -0.007003   -0.017870   -0.101818
H    -1.486865    1.161075    0.419425    0.701121   -0.204655    1.056351
13
* Frequency(6)   83.1418
C     1.654136    0.337477   -0.079228   -0.003021    0.003919    0.020099
C     1.416673   -0.972083    0.195075    0.001070    0.009670    0.050351
N     0.169410   -1.534352    0.312306   -0.000389    0.011347    0.063208
C    -1.015512   -0.881063    0.183297    0.005970    0.015690    0.014243
N    -0.843106    0.573392   -0.216445    0.032824    0.097723    0.542157
C     0.588482    1.271471   -0.269764   -0.015666   -0.015345   -0.014105
O    -2.117677   -1.325885    0.356455    0.011298   -0.028851   -0.378376
O     0.581181    2.452885   -0.463269   -0.045244   -0.096777   -0.325884
H     2.238748   -1.673443    0.353875    0.001343    0.000415    0.002858
H     0.100360   -2.524774    0.560335   -0.003460   -0.024516   -0.135891
H    -1.287101    0.696812   -1.192777   -0.465151    0.558927    1.103371
H     2.674633    0.717642   -0.137719   -0.007003   -0.017870   -0.101818
H    -1.480194    1.159128    0.429475    0.701121   -0.204655    1.056351
13
* Frequency(6)   83.1418
C     1.653996    0.337658   -0.078298   -0.003021    0.003919    0.020099
C     1.416723   -0.971635    0.197406    0.001070    0.009670    0.050351
N     0.169392   -1.533827    0.315231   -0.000389    0.011347    0.063208
C    -1.015236   -0.880337    0.183956    0.005970    0.015690    0.014243
N    -0.841587    0.577915   -0.191353    0.032824    0.097723    0.542157
C     0.587757    1.270761   -0.270417   -0.015666   -0.015345   -0.014105
O    -2.117154   -1.327220    0.338943    0.011298   -0.028851   -0.378376
O     0.579087    2.448406   -0.478351   -0.045244   -0.096777   -0.325884
H     2.238810   -1.673424    0.354007    0.001343    0.000415    0.002858
H     0.100200   -2.525908    0.554046   -0.003460   -0.024516   -0.135891
H    -1.308629    0.722680   -1.141711   -0.465151    0.558927    1.103371
H     2.674309    0.716815   -0.142431   -0.007003   -0.017870   -0.101818
H    -1.447745    1.149656    0.478365    0.701121   -0.204655    1.056351
13
* Frequency(6)   83.1418
C     1.653761    0.337964   -0.076729   -0.003021    0.003919    0.020099
C     1.416806   -0.970881    0.201335    0.001070    0.009670    0.050351
N     0.169362   -1.532942    0.320164   -0.000389    0.011347    0.063208
C    -1.014770   -0.879112    0.185068    0.005970    0.015690    0.014243
N    -0.839026    0.585540   -0.149047    0.032824    0.097723    0.542157
C     0.586535    1.269563   -0.271517   -0.015666   -0.015345   -0.014105
O    -2.116272   -1.329471    0.309417    0.011298   -0.028851   -0.378376
O     0.575556    2.440854   -0.503781   -0.045244   -0.096777   -0.325884
H     2.238915   -1.673392    0.354230    0.001343    0.000415    0.002858
H     0.099930   -2.527821    0.543441   -0.003460   -0.024516   -0.135891
H    -1.344927    0.766296   -1.055611   -0.465151    0.558927    1.103371
H     2.673762    0.715421   -0.150376   -0.007003   -0.017870   -0.101818
H    -1.393033    1.133686    0.560796    0.701121   -0.204655    1.056351
13
* Frequency(6)   83.1418
C     1.653455    0.338361   -0.074693   -0.003021    0.003919    0.020099
C     1.416915   -0.969901    0.206437    0.001070    0.009670    0.050351
N     0.169322   -1.531792    0.326569   -0.000389    0.011347    0.063208
C    -1.014165   -0.877522    0.186511    0.005970    0.015690    0.014243
N    -0.835700    0.595443   -0.094110    0.032824    0.097723    0.542157
C     0.584947    1.268008   -0.272947   -0.015666   -0.015345   -0.014105
O    -2.115127   -1.332395    0.271077    0.011298   -0.028851   -0.378376
O     0.570972    2.431047   -0.536803   -0.045244   -0.096777   -0.325884
H     2.239051   -1.673350    0.354520    0.001343    0.000415    0.002858
H     0.099580   -2.530305    0.529672   -0.003460   -0.024516   -0.135891
H    -1.392060    0.822931   -0.943806   -0.465151    0.558927    1.103371
H     2.673053    0.713610   -0.160693   -0.007003   -0.017870   -0.101818
H    -1.321989    1.112948    0.667836    0.701121   -0.204655    1.056351
13
* Frequency(6)   83.1418
C     1.653111    0.338806   -0.072409   -0.003021    0.003919    0.020099
C     1.417036   -0.968802    0.212159    0.001070    0.009670    0.050351
N     0.169278   -1.530502    0.333752   -0.000389    0.011347    0.063208
C    -1.013486   -0.875739    0.188129    0.005970    0.015690    0.014243
N    -0.831970    0.606548   -0.032497    0.032824    0.097723    0.542157
C     0.583167    1.266264   -0.274550   -0.015666   -0.015345   -0.014105
O    -2.113843   -1.335674    0.228076    0.011298   -0.028851   -0.378376
O     0.565830    2.420049   -0.573838   -0.045244   -0.096777   -0.325884
H     2.239204   -1.673303    0.354845    0.001343    0.000415    0.002858
H     0.099186   -2.533091    0.514228   -0.003460   -0.024516   -0.135891
H    -1.444922    0.886451   -0.818414   -0.465151    0.558927    1.103371
H     2.672257    0.711579   -0.172265   -0.007003   -0.017870   -0.101818
H    -1.242310    1.089691    0.787885    0.701121   -0.204655    1.056351
