13
* (null), Energy   -1000.0000000
C     1.653111    0.338806   -0.072409   -0.066458   -0.011599    0.004942
C     1.417036   -0.968802    0.212159   -0.138225   -0.076571    0.013722
N     0.169278   -1.530502    0.333752    0.086100    0.076321   -0.014149
C    -1.013486   -0.875739    0.188129    0.045096   -0.134489    0.019925
N    -0.831970    0.606548   -0.032497   -0.036117    0.051416   -0.008818
C     0.583167    1.266264   -0.274550    0.182674   -0.001802   -0.001065
O    -2.113843   -1.335674    0.228076    0.014834    0.040427   -0.005324
O     0.565830    2.420049   -0.573838   -0.031715   -0.014211    0.004029
H     2.239204   -1.673303    0.354845   -0.861516   -0.879918    0.203497
H     0.099186   -2.533091    0.514228    0.647336    0.045542   -0.020921
H    -1.444922    0.886451   -0.818414    0.011812    0.031399   -0.041674
H     2.672257    0.711579   -0.172265   -0.552585    1.236367   -0.271439
H    -1.242310    1.089691    0.787885    0.053224    0.050082    0.023114
13
* Frequency(24) 1218.0672
C     1.645559    0.337488   -0.071847   -0.066458   -0.011599    0.004942
C     1.401328   -0.977504    0.213718   -0.138225   -0.076571    0.013722
N     0.179063   -1.521829    0.332144    0.086100    0.076321   -0.014149
C    -1.008361   -0.891023    0.190394    0.045096   -0.134489    0.019925
N    -0.836074    0.612391   -0.033499   -0.036117    0.051416   -0.008818
C     0.603927    1.266060   -0.274671    0.182674   -0.001802   -0.001065
O    -2.112158   -1.331079    0.227471    0.014834    0.040427   -0.005324
O     0.562226    2.418434   -0.573380   -0.031715   -0.014211    0.004029
H     2.141297   -1.773301    0.377971   -0.861516   -0.879918    0.203497
H     0.172753   -2.527916    0.511851    0.647336    0.045542   -0.020921
H    -1.443580    0.890019   -0.823150    0.011812    0.031399   -0.041674
H     2.609458    0.852086   -0.203112   -0.552585    1.236367   -0.271439
H    -1.236262    1.095382    0.790512    0.053224    0.050082    0.023114
13
* Frequency(24) 1218.0672
C     1.638824    0.336313   -0.071346   -0.066458   -0.011599    0.004942
C     1.387322   -0.985263    0.215109   -0.138225   -0.076571    0.013722
N     0.187788   -1.514095    0.330710    0.086100    0.076321   -0.014149
C    -1.003792   -0.904651    0.192413    0.045096   -0.134489    0.019925
N    -0.839734    0.617601   -0.034392   -0.036117    0.051416   -0.008818
C     0.622437    1.265877   -0.274778    0.182674   -0.001802   -0.001065
O    -2.110654   -1.326983    0.226932    0.014834    0.040427   -0.005324
O     0.559012    2.416994   -0.572972   -0.031715   -0.014211    0.004029
H     2.054000   -1.862462    0.398591   -0.861516   -0.879918    0.203497
H     0.238347   -2.523301    0.509731    0.647336    0.045542   -0.020921
H    -1.442383    0.893201   -0.827373    0.011812    0.031399   -0.041674
H     2.553465    0.977367   -0.230617   -0.552585    1.236367   -0.271439
H    -1.230868    1.100457    0.792854    0.053224    0.050082    0.023114
13
* Frequency(24) 1218.0672
C     1.633638    0.335408   -0.070961   -0.066458   -0.011599    0.004942
C     1.376535   -0.991238    0.216179   -0.138225   -0.076571    0.013722
N     0.194506   -1.508140    0.329606    0.086100    0.076321   -0.014149
C    -1.000273   -0.915146    0.193968    0.045096   -0.134489    0.019925
N    -0.842552    0.621614   -0.035080   -0.036117    0.051416   -0.008818
C     0.636692    1.265737   -0.274862    0.182674   -0.001802   -0.001065
O    -2.109497   -1.323828    0.226516    0.014834    0.040427   -0.005324
O     0.556537    2.415885   -0.572657   -0.031715   -0.014211    0.004029
H     1.986772   -1.931126    0.414471   -0.861516   -0.879918    0.203497
H     0.288861   -2.519747    0.508098    0.647336    0.045542   -0.020921
H    -1.441461    0.895651   -0.830625    0.011812    0.031399   -0.041674
H     2.510345    1.073845   -0.251799   -0.552585    1.236367   -0.271439
H    -1.226715    1.104365    0.794658    0.053224    0.050082    0.023114
13
* Frequency(24) 1218.0672
C     1.630563    0.334871   -0.070732   -0.066458   -0.011599    0.004942
C     1.370138   -0.994782    0.216814   -0.138225   -0.076571    0.013722
N     0.198491   -1.504607    0.328951    0.086100    0.076321   -0.014149
C    -0.998186   -0.921370    0.194890    0.045096   -0.134489    0.019925
N    -0.844224    0.623993   -0.035489   -0.036117    0.051416   -0.008818
C     0.645147    1.265653   -0.274911    0.182674   -0.001802   -0.001065
O    -2.108810   -1.321957    0.226270    0.014834    0.040427   -0.005324
O     0.555069    2.415228   -0.572471   -0.031715   -0.014211    0.004029
H     1.946900   -1.971850    0.423889   -0.861516   -0.879918    0.203497
H     0.318821   -2.517640    0.507130    0.647336    0.045542   -0.020921
H    -1.440915    0.897104   -0.832554    0.011812    0.031399   -0.041674
H     2.484770    1.131066   -0.264361   -0.552585    1.236367   -0.271439
H    -1.224252    1.106683    0.795727    0.053224    0.050082    0.023114
13
* Frequency(24) 1218.0672
C     1.629930    0.334761   -0.070685   -0.066458   -0.011599    0.004942
C     1.368823   -0.995510    0.216945   -0.138225   -0.076571    0.013722
N     0.199311   -1.503881    0.328817    0.086100    0.076321   -0.014149
C    -0.997757   -0.922650    0.195079    0.045096   -0.134489    0.019925
N    -0.844567    0.624482   -0.035572   -0.036117    0.051416   -0.008818
C     0.646885    1.265636   -0.274921    0.182674   -0.001802   -0.001065
O    -2.108669   -1.321572    0.226219    0.014834    0.040427   -0.005324
O     0.554767    2.415092   -0.572433   -0.031715   -0.014211    0.004029
H     1.938703   -1.980222    0.425825   -0.861516   -0.879918    0.203497
H     0.324980   -2.517206    0.506931    0.647336    0.045542   -0.020921
H    -1.440802    0.897403   -0.832950    0.011812    0.031399   -0.041674
H     2.479512    1.142830   -0.266944   -0.552585    1.236367   -0.271439
H    -1.223745    1.107159    0.795947    0.053224    0.050082    0.023114
13
* Frequency(24) 1218.0672
C     1.631810    0.335089   -0.070825   -0.066458   -0.011599    0.004942
C     1.372733   -0.993344    0.216557   -0.138225   -0.076571    0.013722
N     0.196875   -1.506040    0.329217    0.086100    0.076321   -0.014149
C    -0.999032   -0.918846    0.194516    0.045096   -0.134489    0.019925
N    -0.843546    0.623028   -0.035323   -0.036117    0.051416   -0.008818
C     0.641718    1.265687   -0.274891    0.182674   -0.001802   -0.001065
O    -2.109089   -1.322716    0.226370    0.014834    0.040427   -0.005324
O     0.555664    2.415494   -0.572546   -0.031715   -0.014211    0.004029
H     1.963070   -1.955334    0.420070   -0.861516   -0.879918    0.203497
H     0.306671   -2.518494    0.507523    0.647336    0.045542   -0.020921
H    -1.441136    0.896515   -0.831771    0.011812    0.031399   -0.041674
H     2.495142    1.107860   -0.259266   -0.552585    1.236367   -0.271439
H    -1.225251    1.105743    0.795293    0.053224    0.050082    0.023114
13
* Frequency(24) 1218.0672
C     1.635998    0.335820   -0.071136   -0.066458   -0.011599    0.004942
C     1.381443   -0.988519    0.215692   -0.138225   -0.076571    0.013722
N     0.191450   -1.510849    0.330108    0.086100    0.076321   -0.014149
C    -1.001874   -0.910371    0.193260    0.045096   -0.134489    0.019925
N    -0.841270    0.619788   -0.034767   -0.036117    0.051416   -0.008818
C     0.630206    1.265801   -0.274824    0.182674   -0.001802   -0.001065
O    -2.110023   -1.325263    0.226705    0.014834    0.040427   -0.005324
O     0.557663    2.416390   -0.572800   -0.031715   -0.014211    0.004029
H     2.017361   -1.899884    0.407246   -0.861516   -0.879918    0.203497
H     0.265878   -2.521364    0.508841    0.647336    0.045542   -0.020921
H    -1.441881    0.894536   -0.829145    0.011812    0.031399   -0.041674
H     2.529964    1.029948   -0.242161   -0.552585    1.236367   -0.271439
H    -1.228605    1.102587    0.793837    0.053224    0.050082    0.023114
13
* Frequency(24) 1218.0672
C     1.642041    0.336874   -0.071585   -0.066458   -0.011599    0.004942
C     1.394011   -0.981557    0.214445   -0.138225   -0.076571    0.013722
N     0.183621   -1.517789    0.331395    0.086100    0.076321   -0.014149
C    -1.005974   -0.898143    0.191449    0.045096   -0.134489    0.019925
N    -0.837986    0.615113   -0.033966   -0.036117    0.051416   -0.008818
C     0.613597    1.265964   -0.274727    0.182674   -0.001802   -0.001065
O    -2.111372   -1.328939    0.227189    0.014834    0.040427   -0.005324
O     0.560547    2.417682   -0.573167   -0.031715   -0.014211    0.004029
H     2.095691   -1.819881    0.388744   -0.861516   -0.879918    0.203497
H     0.207021   -2.525505    0.510743    0.647336    0.045542   -0.020921
H    -1.442955    0.891681   -0.825356    0.011812    0.031399   -0.041674
H     2.580206    0.917535   -0.217481   -0.552585    1.236367   -0.271439
H    -1.233444    1.098033    0.791735    0.053224    0.050082    0.023114
13
* Frequency(24) 1218.0672
C     1.649283    0.338138   -0.072124   -0.066458   -0.011599    0.004942
C     1.409074   -0.973213    0.212949   -0.138225   -0.076571    0.013722
N     0.174238   -1.526106    0.332937    0.086100    0.076321   -0.014149
C    -1.010888   -0.883487    0.189277    0.045096   -0.134489    0.019925
N    -0.834050    0.609510   -0.033005   -0.036117    0.051416   -0.008818
C     0.593691    1.266161   -0.274611    0.182674   -0.001802   -0.001065
O    -2.112989   -1.333345    0.227770    0.014834    0.040427   -0.005324
O     0.564003    2.419231   -0.573606   -0.031715   -0.014211    0.004029
H     2.189574   -1.723993    0.366568   -0.861516   -0.879918    0.203497
H     0.136478   -2.530468    0.513023    0.647336    0.045542   -0.020921
H    -1.444242    0.888259   -0.820815    0.011812    0.031399   -0.041674
H     2.640423    0.782804   -0.187902   -0.552585    1.236367   -0.271439
H    -1.239244    1.092576    0.789216    0.053224    0.050082    0.023114
13
* Frequency(24) 1218.0672
C     1.656940    0.339475   -0.072693   -0.066458   -0.011599    0.004942
C     1.424999   -0.964391    0.211368   -0.138225   -0.076571    0.013722
N     0.164318   -1.534899    0.334567    0.086100    0.076321   -0.014149
C    -1.016084   -0.867992    0.186982    0.045096   -0.134489    0.019925
N    -0.829889    0.603586   -0.031989   -0.036117    0.051416   -0.008818
C     0.572644    1.266368   -0.274488    0.182674   -0.001802   -0.001065
O    -2.114698   -1.338003    0.228383    0.014834    0.040427   -0.005324
O     0.567657    2.420868   -0.574070   -0.031715   -0.014211    0.004029
H     2.288834   -1.622612    0.343122   -0.861516   -0.879918    0.203497
H     0.061895   -2.535715    0.515434    0.647336    0.045542   -0.020921
H    -1.445603    0.884642   -0.816013    0.011812    0.031399   -0.041674
H     2.704090    0.640355   -0.156627   -0.552585    1.236367   -0.271439
H    -1.245376    1.086805    0.786553    0.053224    0.050082    0.023114
13
* Frequency(24) 1218.0672
C     1.664182    0.340739   -0.073232   -0.066458   -0.011599    0.004942
C     1.440062   -0.956047    0.209873   -0.138225   -0.076571    0.013722
N     0.154936   -1.543216    0.336109    0.086100    0.076321   -0.014149
C    -1.020998   -0.853336    0.184810    0.045096   -0.134489    0.019925
N    -0.825953    0.597983   -0.031028   -0.036117    0.051416   -0.008818
C     0.552737    1.266565   -0.274372    0.182674   -0.001802   -0.001065
O    -2.116314   -1.342408    0.228963    0.014834    0.040427   -0.005324
O     0.571113    2.422417   -0.574509   -0.031715   -0.014211    0.004029
H     2.382717   -1.526724    0.320946   -0.861516   -0.879918    0.203497
H    -0.008648   -2.540678    0.517713    0.647336    0.045542   -0.020921
H    -1.446890    0.881220   -0.811472    0.011812    0.031399   -0.041674
H     2.764307    0.505623   -0.127048   -0.552585    1.236367   -0.271439
H    -1.251176    1.081348    0.784034    0.053224    0.050082    0.023114
13
* Frequency(24) 1218.0672
C     1.670225    0.341793   -0.073681   -0.066458   -0.011599    0.004942
C     1.452630   -0.949085    0.208625   -0.138225   -0.076571    0.013722
N     0.147107   -1.550155    0.337395    0.086100    0.076321   -0.014149
C    -1.025099   -0.841108    0.182999    0.045096   -0.134489    0.019925
N    -0.822669    0.593308   -0.030226   -0.036117    0.051416   -0.008818
C     0.536128    1.266728   -0.274275    0.182674   -0.001802   -0.001065
O    -2.117663   -1.346084    0.229447    0.014834    0.040427   -0.005324
O     0.573997    2.423709   -0.574875   -0.031715   -0.014211    0.004029
H     2.461047   -1.446721    0.302444   -0.861516   -0.879918    0.203497
H    -0.067505   -2.544819    0.519616    0.647336    0.045542   -0.020921
H    -1.447964    0.878365   -0.807683    0.011812    0.031399   -0.041674
H     2.814549    0.393211   -0.102368   -0.552585    1.236367   -0.271439
H    -1.256016    1.076794    0.781933    0.053224    0.050082    0.023114
13
* Frequency(24) 1218.0672
C     1.674413    0.342524   -0.073992   -0.066458   -0.011599    0.004942
C     1.461340   -0.944259    0.207761   -0.138225   -0.076571    0.013722
N     0.141681   -1.554965    0.338287    0.086100    0.076321   -0.014149
C    -1.027940   -0.832633    0.181743    0.045096   -0.134489    0.019925
N    -0.820393    0.590068   -0.029671   -0.036117    0.051416   -0.008818
C     0.524616    1.266842   -0.274208    0.182674   -0.001802   -0.001065
O    -2.118598   -1.348631    0.229783    0.014834    0.040427   -0.005324
O     0.575995    2.424604   -0.575129   -0.031715   -0.014211    0.004029
H     2.515338   -1.391271    0.289620   -0.861516   -0.879918    0.203497
H    -0.108298   -2.547688    0.520934    0.647336    0.045542   -0.020921
H    -1.448708    0.876387   -0.805057    0.011812    0.031399   -0.041674
H     2.849372    0.315298   -0.085263   -0.552585    1.236367   -0.271439
H    -1.259370    1.073638    0.780476    0.053224    0.050082    0.023114
13
* Frequency(24) 1218.0672
C     1.676292    0.342852   -0.074132   -0.066458   -0.011599    0.004942
C     1.465250   -0.942094    0.207373   -0.138225   -0.076571    0.013722
N     0.139246   -1.557124    0.338687    0.086100    0.076321   -0.014149
C    -1.029216   -0.828829    0.181179    0.045096   -0.134489    0.019925
N    -0.819372    0.588614   -0.029421   -0.036117    0.051416   -0.008818
C     0.519449    1.266893   -0.274178    0.182674   -0.001802   -0.001065
O    -2.119018   -1.349775    0.229933    0.014834    0.040427   -0.005324
O     0.576892    2.425006   -0.575243   -0.031715   -0.014211    0.004029
H     2.539705   -1.366383    0.283864   -0.861516   -0.879918    0.203497
H    -0.126607   -2.548977    0.521526    0.647336    0.045542   -0.020921
H    -1.449042    0.875498   -0.803878    0.011812    0.031399   -0.041674
H     2.865001    0.280329   -0.077585   -0.552585    1.236367   -0.271439
H    -1.260875    1.072222    0.779822    0.053224    0.050082    0.023114
13
* Frequency(24) 1218.0672
C     1.675660    0.342742   -0.074085   -0.066458   -0.011599    0.004942
C     1.463935   -0.942822    0.207503   -0.138225   -0.076571    0.013722
N     0.140065   -1.556398    0.338552    0.086100    0.076321   -0.014149
C    -1.028787   -0.830109    0.181369    0.045096   -0.134489    0.019925
N    -0.819715    0.589103   -0.029505   -0.036117    0.051416   -0.008818
C     0.521187    1.266876   -0.274188    0.182674   -0.001802   -0.001065
O    -2.118876   -1.349390    0.229883    0.014834    0.040427   -0.005324
O     0.576591    2.424871   -0.575205   -0.031715   -0.014211    0.004029
H     2.531508   -1.374755    0.285800   -0.861516   -0.879918    0.203497
H    -0.120448   -2.548543    0.521327    0.647336    0.045542   -0.020921
H    -1.448930    0.875797   -0.804274    0.011812    0.031399   -0.041674
H     2.859744    0.292092   -0.080168   -0.552585    1.236367   -0.271439
H    -1.260369    1.072698    0.780042    0.053224    0.050082    0.023114
13
* Frequency(24) 1218.0672
C     1.672584    0.342205   -0.073857   -0.066458   -0.011599    0.004942
C     1.457537   -0.946366    0.208138   -0.138225   -0.076571    0.013722
N     0.144050   -1.552865    0.337898    0.086100    0.076321   -0.014149
C    -1.026700   -0.836333    0.182291    0.045096   -0.134489    0.019925
N    -0.821387    0.591483   -0.029913   -0.036117    0.051416   -0.008818
C     0.529642    1.266792   -0.274238    0.182674   -0.001802   -0.001065
O    -2.118190   -1.347519    0.229636    0.014834    0.040427   -0.005324
O     0.575123    2.424213   -0.575018   -0.031715   -0.014211    0.004029
H     2.491635   -1.415479    0.295218   -0.861516   -0.879918    0.203497
H    -0.090488   -2.546435    0.520358    0.647336    0.045542   -0.020921
H    -1.448383    0.877250   -0.806203    0.011812    0.031399   -0.041674
H     2.834169    0.349314   -0.092731   -0.552585    1.236367   -0.271439
H    -1.257905    1.075016    0.781112    0.053224    0.050082    0.023114
13
* Frequency(24) 1218.0672
C     1.667398    0.341300   -0.073471   -0.066458   -0.011599    0.004942
C     1.446751   -0.952341    0.209209   -0.138225   -0.076571    0.013722
N     0.150769   -1.546910    0.336793    0.086100    0.076321   -0.014149
C    -1.023181   -0.846828    0.183846    0.045096   -0.134489    0.019925
N    -0.824205    0.595495   -0.030601   -0.036117    0.051416   -0.008818
C     0.543897    1.266652   -0.274321    0.182674   -0.001802   -0.001065
O    -2.117032   -1.344364    0.229221    0.014834    0.040427   -0.005324
O     0.572648    2.423104   -0.574704   -0.031715   -0.014211    0.004029
H     2.424408   -1.484143    0.311098   -0.861516   -0.879918    0.203497
H    -0.039974   -2.542882    0.518726    0.647336    0.045542   -0.020921
H    -1.447462    0.879701   -0.809455    0.011812    0.031399   -0.041674
H     2.791049    0.445792   -0.113912   -0.552585    1.236367   -0.271439
H    -1.253752    1.078924    0.782916    0.053224    0.050082    0.023114
13
* Frequency(24) 1218.0672
C     1.660664    0.340125   -0.072970   -0.066458   -0.011599    0.004942
C     1.432745   -0.960100    0.210599   -0.138225   -0.076571    0.013722
N     0.159493   -1.539176    0.335360    0.086100    0.076321   -0.014149
C    -1.018611   -0.860455    0.185865    0.045096   -0.134489    0.019925
N    -0.827865    0.600705   -0.031495   -0.036117    0.051416   -0.008818
C     0.562407    1.266469   -0.274429    0.182674   -0.001802   -0.001065
O    -2.115529   -1.340268    0.228681    0.014834    0.040427   -0.005324
O     0.569434    2.421664   -0.574296   -0.031715   -0.014211    0.004029
H     2.337111   -1.573304    0.331718   -0.861516   -0.879918    0.203497
H     0.025620   -2.538267    0.516606    0.647336    0.045542   -0.020921
H    -1.446265    0.882882   -0.813678    0.011812    0.031399   -0.041674
H     2.735055    0.571073   -0.141417   -0.552585    1.236367   -0.271439
H    -1.248359    1.083999    0.785258    0.053224    0.050082    0.023114
13
* Frequency(24) 1218.0672
C     1.653111    0.338806   -0.072409   -0.066458   -0.011599    0.004942
C     1.417036   -0.968802    0.212159   -0.138225   -0.076571    0.013722
N     0.169278   -1.530502    0.333752    0.086100    0.076321   -0.014149
C    -1.013486   -0.875739    0.188129    0.045096   -0.134489    0.019925
N    -0.831970    0.606548   -0.032497   -0.036117    0.051416   -0.008818
C     0.583167    1.266264   -0.274550    0.182674   -0.001802   -0.001065
O    -2.113843   -1.335674    0.228076    0.014834    0.040427   -0.005324
O     0.565830    2.420049   -0.573838   -0.031715   -0.014211    0.004029
H     2.239204   -1.673303    0.354845   -0.861516   -0.879918    0.203497
H     0.099186   -2.533091    0.514228    0.647336    0.045542   -0.020921
H    -1.444922    0.886451   -0.818414    0.011812    0.031399   -0.041674
H     2.672257    0.711579   -0.172265   -0.552585    1.236367   -0.271439
H    -1.242310    1.089691    0.787885    0.053224    0.050082    0.023114
