13
* (null), Energy   -1000.0000000
C     1.653111    0.338806   -0.072409    0.095149   -0.105432    0.010998
C     1.417036   -0.968802    0.212159    0.241139   -0.155488    0.063899
N     0.169278   -1.530502    0.333752    0.173317   -0.212004    0.051500
C    -1.013486   -0.875739    0.188129    0.349402    0.112332   -0.039264
N    -0.831970    0.606548   -0.032497    0.542556   -0.184314   -0.080664
C     0.583167    1.266264   -0.274550   -0.246070   -0.363177    0.086688
O    -2.113843   -1.335674    0.228076   -0.048422    1.084892   -0.178724
O     0.565830    2.420049   -0.573838   -0.992768   -0.311523    0.124590
H     2.239204   -1.673303    0.354845    0.271633   -0.112536    0.114622
H     0.099186   -2.533091    0.514228    0.090697   -0.201896    0.094721
H    -1.444922    0.886451   -0.818414    0.630127   -0.281771   -0.192754
H     2.672257    0.711579   -0.172265    0.038569    0.046148    0.015126
H    -1.242310    1.089691    0.787885    0.308758   -0.119693   -0.224773
13
* Frequency(8)  352.7528
C     1.663924    0.326825   -0.071159    0.095149   -0.105432    0.010998
C     1.444441   -0.986472    0.219421    0.241139   -0.155488    0.063899
N     0.188975   -1.554596    0.339604    0.173317   -0.212004    0.051500
C    -0.973779   -0.862973    0.183667    0.349402    0.112332   -0.039264
N    -0.770311    0.585602   -0.041664    0.542556   -0.184314   -0.080664
C     0.555203    1.224991   -0.264698   -0.246070   -0.363177    0.086688
O    -2.119346   -1.212381    0.207765   -0.048422    1.084892   -0.178724
O     0.453007    2.384646   -0.559679   -0.992768   -0.311523    0.124590
H     2.270074   -1.686092    0.367871    0.271633   -0.112536    0.114622
H     0.109494   -2.556036    0.524993    0.090697   -0.201896    0.094721
H    -1.373312    0.854429   -0.840319    0.630127   -0.281771   -0.192754
H     2.676640    0.716824   -0.170546    0.038569    0.046148    0.015126
H    -1.207221    1.076088    0.762341    0.308758   -0.119693   -0.224773
13
* Frequency(8)  352.7528
C     1.673566    0.316141   -0.070044    0.095149   -0.105432    0.010998
C     1.468875   -1.002228    0.225895    0.241139   -0.155488    0.063899
N     0.206537   -1.576078    0.344823    0.173317   -0.212004    0.051500
C    -0.938374   -0.851591    0.179689    0.349402    0.112332   -0.039264
N    -0.715334    0.566925   -0.049837    0.542556   -0.184314   -0.080664
C     0.530268    1.188191   -0.255914   -0.246070   -0.363177    0.086688
O    -2.124253   -1.102450    0.189655   -0.048422    1.084892   -0.178724
O     0.352410    2.353080   -0.547054   -0.992768   -0.311523    0.124590
H     2.297598   -1.697495    0.379486    0.271633   -0.112536    0.114622
H     0.118684   -2.576494    0.534591    0.090697   -0.201896    0.094721
H    -1.309461    0.825877   -0.859851    0.630127   -0.281771   -0.192754
H     2.680548    0.721500   -0.169013    0.038569    0.046148    0.015126
H    -1.175935    1.063959    0.739564    0.308758   -0.119693   -0.224773
13
* Frequency(8)  352.7528
C     1.680991    0.307914   -0.069186    0.095149   -0.105432    0.010998
C     1.487692   -1.014361    0.230882    0.241139   -0.155488    0.063899
N     0.220062   -1.592621    0.348842    0.173317   -0.212004    0.051500
C    -0.911109   -0.842825    0.176625    0.349402    0.112332   -0.039264
N    -0.672996    0.552543   -0.056132    0.542556   -0.184314   -0.080664
C     0.511067    1.159851   -0.249149   -0.246070   -0.363177    0.086688
O    -2.128031   -1.017791    0.175709   -0.048422    1.084892   -0.178724
O     0.274941    2.328771   -0.537332   -0.992768   -0.311523    0.124590
H     2.318795   -1.706276    0.388430    0.271633   -0.112536    0.114622
H     0.125761   -2.592249    0.541982    0.090697   -0.201896    0.094721
H    -1.260290    0.803890   -0.874892    0.630127   -0.281771   -0.192754
H     2.683558    0.725101   -0.167833    0.038569    0.046148    0.015126
H    -1.151842    1.054619    0.722024    0.308758   -0.119693   -0.224773
13
* Frequency(8)  352.7528
C     1.685394    0.303034   -0.068677    0.095149   -0.105432    0.010998
C     1.498852   -1.021557    0.233839    0.241139   -0.155488    0.063899
N     0.228083   -1.602433    0.351225    0.173317   -0.212004    0.051500
C    -0.894938   -0.837626    0.174808    0.349402    0.112332   -0.039264
N    -0.647886    0.544012   -0.059865    0.542556   -0.184314   -0.080664
C     0.499678    1.143042   -0.245137   -0.246070   -0.363177    0.086688
O    -2.130272   -0.967581    0.167437   -0.048422    1.084892   -0.178724
O     0.228994    2.314353   -0.531565   -0.992768   -0.311523    0.124590
H     2.331366   -1.711485    0.393735    0.271633   -0.112536    0.114622
H     0.129959   -2.601593    0.546366    0.090697   -0.201896    0.094721
H    -1.231127    0.790849   -0.883813    0.630127   -0.281771   -0.192754
H     2.685343    0.727237   -0.167132    0.038569    0.046148    0.015126
H    -1.137552    1.049080    0.711622    0.308758   -0.119693   -0.224773
13
* Frequency(8)  352.7528
C     1.686300    0.302031   -0.068572    0.095149   -0.105432    0.010998
C     1.501147   -1.023037    0.234447    0.241139   -0.155488    0.063899
N     0.229732   -1.604450    0.351715    0.173317   -0.212004    0.051500
C    -0.891613   -0.836557    0.174434    0.349402    0.112332   -0.039264
N    -0.642723    0.542259   -0.060633    0.542556   -0.184314   -0.080664
C     0.497337    1.139587   -0.244312   -0.246070   -0.363177    0.086688
O    -2.130733   -0.957258    0.165737   -0.048422    1.084892   -0.178724
O     0.219548    2.311389   -0.530380   -0.992768   -0.311523    0.124590
H     2.333951   -1.712555    0.394825    0.271633   -0.112536    0.114622
H     0.130822   -2.603514    0.547268    0.090697   -0.201896    0.094721
H    -1.225131    0.788168   -0.885647    0.630127   -0.281771   -0.192754
H     2.685710    0.727676   -0.166989    0.038569    0.046148    0.015126
H    -1.134614    1.047941    0.709483    0.308758   -0.119693   -0.224773
13
* Frequency(8)  352.7528
C     1.683608    0.305013   -0.068883    0.095149   -0.105432    0.010998
C     1.494326   -1.018639    0.232640    0.241139   -0.155488    0.063899
N     0.224830   -1.598454    0.350259    0.173317   -0.212004    0.051500
C    -0.901496   -0.839735    0.175545    0.349402    0.112332   -0.039264
N    -0.658069    0.547472   -0.058351    0.542556   -0.184314   -0.080664
C     0.504297    1.149859   -0.246764   -0.246070   -0.363177    0.086688
O    -2.129364   -0.987943    0.170792   -0.048422    1.084892   -0.178724
O     0.247627    2.320200   -0.533904   -0.992768   -0.311523    0.124590
H     2.326268   -1.709373    0.391583    0.271633   -0.112536    0.114622
H     0.128257   -2.597803    0.544588    0.090697   -0.201896    0.094721
H    -1.242954    0.796137   -0.880196    0.630127   -0.281771   -0.192754
H     2.684619    0.726371   -0.167416    0.038569    0.046148    0.015126
H    -1.143347    1.051326    0.715840    0.308758   -0.119693   -0.224773
13
* Frequency(8)  352.7528
C     1.677612    0.311657   -0.069577    0.095149   -0.105432    0.010998
C     1.479130   -1.008840    0.228613    0.241139   -0.155488    0.063899
N     0.213908   -1.585094    0.347013    0.173317   -0.212004    0.051500
C    -0.923514   -0.846813    0.178019    0.349402    0.112332   -0.039264
N    -0.692259    0.559087   -0.053268    0.542556   -0.184314   -0.080664
C     0.519803    1.172745   -0.252227   -0.246070   -0.363177    0.086688
O    -2.126312   -1.056310    0.182054   -0.048422    1.084892   -0.178724
O     0.310189    2.339831   -0.541755   -0.992768   -0.311523    0.124590
H     2.309150   -1.702281    0.384360    0.271633   -0.112536    0.114622
H     0.122541   -2.585080    0.538619    0.090697   -0.201896    0.094721
H    -1.282663    0.813894   -0.868049    0.630127   -0.281771   -0.192754
H     2.682188    0.723463   -0.168370    0.038569    0.046148    0.015126
H    -1.162804    1.058869    0.730005    0.308758   -0.119693   -0.224773
13
* Frequency(8)  352.7528
C     1.668961    0.321243   -0.070577    0.095149   -0.105432    0.010998
C     1.457206   -0.994703    0.222803    0.241139   -0.155488    0.063899
N     0.198150   -1.565818    0.342331    0.173317   -0.212004    0.051500
C    -0.955282   -0.857027    0.181589    0.349402    0.112332   -0.039264
N    -0.741590    0.575845   -0.045934    0.542556   -0.184314   -0.080664
C     0.542176    1.205766   -0.260109   -0.246070   -0.363177    0.086688
O    -2.121910   -1.154951    0.198304   -0.048422    1.084892   -0.178724
O     0.400453    2.368155   -0.553083   -0.992768   -0.311523    0.124590
H     2.284453   -1.692049    0.373939    0.271633   -0.112536    0.114622
H     0.114295   -2.566724    0.530007    0.090697   -0.201896    0.094721
H    -1.339955    0.839513   -0.850523    0.630127   -0.281771   -0.192754
H     2.678682    0.719267   -0.169745    0.038569    0.046148    0.015126
H    -1.190877    1.069752    0.750442    0.308758   -0.119693   -0.224773
13
* Frequency(8)  352.7528
C     1.658593    0.332733   -0.071775    0.095149   -0.105432    0.010998
C     1.430928   -0.977759    0.215840    0.241139   -0.155488    0.063899
N     0.179263   -1.542716    0.336719    0.173317   -0.212004    0.051500
C    -0.993358   -0.869268    0.185868    0.349402    0.112332   -0.039264
N    -0.800714    0.595930   -0.037144    0.542556   -0.184314   -0.080664
C     0.568991    1.245343   -0.269556   -0.246070   -0.363177    0.086688
O    -2.116633   -1.273175    0.217780   -0.048422    1.084892   -0.178724
O     0.508638    2.402103   -0.566660   -0.992768   -0.311523    0.124590
H     2.254852   -1.679785    0.361448    0.271633   -0.112536    0.114622
H     0.104411   -2.544722    0.519685    0.090697   -0.201896    0.094721
H    -1.408622    0.870218   -0.829518    0.630127   -0.281771   -0.192754
H     2.674479    0.714238   -0.171393    0.038569    0.046148    0.015126
H    -1.224523    1.082795    0.774936    0.308758   -0.119693   -0.224773
13
* Frequency(8)  352.7528
C     1.647630    0.344880   -0.073042    0.095149   -0.105432    0.010998
C     1.403145   -0.959844    0.208478    0.241139   -0.155488    0.063899
N     0.159294   -1.518289    0.330785    0.173317   -0.212004    0.051500
C    -1.033615   -0.882211    0.190391    0.349402    0.112332   -0.039264
N    -0.863225    0.617166   -0.027850    0.542556   -0.184314   -0.080664
C     0.597343    1.287186   -0.279543   -0.246070   -0.363177    0.086688
O    -2.111054   -1.398172    0.238372   -0.048422    1.084892   -0.178724
O     0.623021    2.437995   -0.581015   -0.992768   -0.311523    0.124590
H     2.223556   -1.666820    0.348242    0.271633   -0.112536    0.114622
H     0.093962   -2.521461    0.508772    0.090697   -0.201896    0.094721
H    -1.481223    0.902683   -0.807310    0.630127   -0.281771   -0.192754
H     2.670035    0.708921   -0.173136    0.038569    0.046148    0.015126
H    -1.260097    1.096586    0.800834    0.308758   -0.119693   -0.224773
13
* Frequency(8)  352.7528
C     1.637261    0.356369   -0.074241    0.095149   -0.105432    0.010998
C     1.376867   -0.942900    0.201514    0.241139   -0.155488    0.063899
N     0.140407   -1.495186    0.325173    0.173317   -0.212004    0.051500
C    -1.071690   -0.894452    0.194670    0.349402    0.112332   -0.039264
N    -0.922349    0.637252   -0.019060    0.542556   -0.184314   -0.080664
C     0.624158    1.326763   -0.288990   -0.246070   -0.363177    0.086688
O    -2.105777   -1.516397    0.257848   -0.048422    1.084892   -0.178724
O     0.731207    2.471943   -0.594592   -0.992768   -0.311523    0.124590
H     2.193955   -1.654556    0.335751    0.271633   -0.112536    0.114622
H     0.084078   -2.499459    0.498450    0.090697   -0.201896    0.094721
H    -1.549890    0.933388   -0.786305    0.630127   -0.281771   -0.192754
H     2.665832    0.703892   -0.174784    0.038569    0.046148    0.015126
H    -1.293744    1.109629    0.825328    0.308758   -0.119693   -0.224773
13
* Frequency(8)  352.7528
C     1.628610    0.365956   -0.075241    0.095149   -0.105432    0.010998
C     1.354942   -0.928763    0.195705    0.241139   -0.155488    0.063899
N     0.124649   -1.475911    0.320491    0.173317   -0.212004    0.051500
C    -1.103458   -0.904665    0.198240    0.349402    0.112332   -0.039264
N    -0.971680    0.654010   -0.011726    0.542556   -0.184314   -0.080664
C     0.646531    1.359784   -0.296872   -0.246070   -0.363177    0.086688
O    -2.101375   -1.615037    0.274098   -0.048422    1.084892   -0.178724
O     0.821471    2.500267   -0.605920   -0.992768   -0.311523    0.124590
H     2.169257   -1.644324    0.325329    0.271633   -0.112536    0.114622
H     0.075832   -2.481103    0.489837    0.090697   -0.201896    0.094721
H    -1.607182    0.959007   -0.768779    0.630127   -0.281771   -0.192754
H     2.662325    0.699696   -0.176160    0.038569    0.046148    0.015126
H    -1.321816    1.120512    0.845765    0.308758   -0.119693   -0.224773
13
* Frequency(8)  352.7528
C     1.622614    0.372600   -0.075934    0.095149   -0.105432    0.010998
C     1.339747   -0.918965    0.191678    0.241139   -0.155488    0.063899
N     0.113727   -1.462551    0.317245    0.173317   -0.212004    0.051500
C    -1.125477   -0.911744    0.200714    0.349402    0.112332   -0.039264
N    -1.005870    0.665625   -0.006642    0.542556   -0.184314   -0.080664
C     0.662038    1.382670   -0.302335   -0.246070   -0.363177    0.086688
O    -2.098323   -1.683404    0.285361   -0.048422    1.084892   -0.178724
O     0.884033    2.519899   -0.613771   -0.992768   -0.311523    0.124590
H     2.152140   -1.637233    0.318106    0.271633   -0.112536    0.114622
H     0.070116   -2.468380    0.483868    0.090697   -0.201896    0.094721
H    -1.646891    0.976764   -0.756632    0.630127   -0.281771   -0.192754
H     2.659895    0.696788   -0.177113    0.038569    0.046148    0.015126
H    -1.341273    1.128055    0.859929    0.308758   -0.119693   -0.224773
13
* Frequency(8)  352.7528
C     1.619923    0.375582   -0.076245    0.095149   -0.105432    0.010998
C     1.332926   -0.914567    0.189871    0.241139   -0.155488    0.063899
N     0.108825   -1.456555    0.315789    0.173317   -0.212004    0.051500
C    -1.135359   -0.914921    0.201825    0.349402    0.112332   -0.039264
N    -1.021216    0.670838   -0.004361    0.542556   -0.184314   -0.080664
C     0.668998    1.392942   -0.304787   -0.246070   -0.363177    0.086688
O    -2.096954   -1.714089    0.290416   -0.048422    1.084892   -0.178724
O     0.912112    2.528710   -0.617295   -0.992768   -0.311523    0.124590
H     2.144457   -1.634050    0.314864    0.271633   -0.112536    0.114622
H     0.067551   -2.462669    0.481189    0.090697   -0.201896    0.094721
H    -1.664713    0.984733   -0.751181    0.630127   -0.281771   -0.192754
H     2.658804    0.695482   -0.177541    0.038569    0.046148    0.015126
H    -1.350006    1.131440    0.866287    0.308758   -0.119693   -0.224773
13
* Frequency(8)  352.7528
C     1.620828    0.374579   -0.076140    0.095149   -0.105432    0.010998
C     1.335220   -0.916046    0.190479    0.241139   -0.155488    0.063899
N     0.110474   -1.458572    0.316279    0.173317   -0.212004    0.051500
C    -1.132035   -0.913853    0.201451    0.349402    0.112332   -0.039264
N    -1.016053    0.669084   -0.005128    0.542556   -0.184314   -0.080664
C     0.666656    1.389487   -0.303962   -0.246070   -0.363177    0.086688
O    -2.097414   -1.703767    0.288716   -0.048422    1.084892   -0.178724
O     0.902666    2.525746   -0.616110   -0.992768   -0.311523    0.124590
H     2.147041   -1.635120    0.315955    0.271633   -0.112536    0.114622
H     0.068414   -2.464590    0.482090    0.090697   -0.201896    0.094721
H    -1.658718    0.982053   -0.753015    0.630127   -0.281771   -0.192754
H     2.659171    0.695922   -0.177397    0.038569    0.046148    0.015126
H    -1.347069    1.130301    0.864148    0.308758   -0.119693   -0.224773
13
* Frequency(8)  352.7528
C     1.625232    0.369699   -0.075631    0.095149   -0.105432    0.010998
C     1.346381   -0.923243    0.193436    0.241139   -0.155488    0.063899
N     0.118495   -1.468384    0.318662    0.173317   -0.212004    0.051500
C    -1.115864   -0.908654    0.199634    0.349402    0.112332   -0.039264
N    -0.990943    0.660554   -0.008862    0.542556   -0.184314   -0.080664
C     0.655268    1.372678   -0.299950   -0.246070   -0.363177    0.086688
O    -2.099655   -1.653556    0.280444   -0.048422    1.084892   -0.178724
O     0.856719    2.511328   -0.610344   -0.992768   -0.311523    0.124590
H     2.159613   -1.640329    0.321260    0.271633   -0.112536    0.114622
H     0.072611   -2.473934    0.486474    0.090697   -0.201896    0.094721
H    -1.629555    0.969012   -0.761936    0.630127   -0.281771   -0.192754
H     2.660956    0.698057   -0.176697    0.038569    0.046148    0.015126
H    -1.332779    1.124762    0.853745    0.308758   -0.119693   -0.224773
13
* Frequency(8)  352.7528
C     1.632657    0.361472   -0.074773    0.095149   -0.105432    0.010998
C     1.365198   -0.935376    0.198422    0.241139   -0.155488    0.063899
N     0.132020   -1.484927    0.322681    0.173317   -0.212004    0.051500
C    -1.088599   -0.899888    0.196570    0.349402    0.112332   -0.039264
N    -0.948605    0.646171   -0.015156    0.542556   -0.184314   -0.080664
C     0.636066    1.344338   -0.293185   -0.246070   -0.363177    0.086688
O    -2.103434   -1.568898    0.266497   -0.048422    1.084892   -0.178724
O     0.779250    2.487019   -0.600621   -0.992768   -0.311523    0.124590
H     2.180810   -1.649110    0.330204    0.271633   -0.112536    0.114622
H     0.079689   -2.489689    0.493866    0.090697   -0.201896    0.094721
H    -1.580383    0.947024   -0.776977    0.630127   -0.281771   -0.192754
H     2.663966    0.701659   -0.175516    0.038569    0.046148    0.015126
H    -1.308685    1.115422    0.836205    0.308758   -0.119693   -0.224773
13
* Frequency(8)  352.7528
C     1.642298    0.350788   -0.073658    0.095149   -0.105432    0.010998
C     1.389632   -0.951131    0.204897    0.241139   -0.155488    0.063899
N     0.149582   -1.506409    0.327899    0.173317   -0.212004    0.051500
C    -1.053194   -0.888505    0.192592    0.349402    0.112332   -0.039264
N    -0.893628    0.627495   -0.023330    0.542556   -0.184314   -0.080664
C     0.611132    1.307538   -0.284401   -0.246070   -0.363177    0.086688
O    -2.108340   -1.458966    0.248387   -0.048422    1.084892   -0.178724
O     0.678653    2.455452   -0.587997   -0.992768   -0.311523    0.124590
H     2.208334   -1.660513    0.341819    0.271633   -0.112536    0.114622
H     0.088879   -2.510147    0.503464    0.090697   -0.201896    0.094721
H    -1.516533    0.918472   -0.796509    0.630127   -0.281771   -0.192754
H     2.667874    0.706335   -0.173984    0.038569    0.046148    0.015126
H    -1.277399    1.103293    0.813429    0.308758   -0.119693   -0.224773
13
* Frequency(8)  352.7528
C     1.653111    0.338806   -0.072409    0.095149   -0.105432    0.010998
C     1.417036   -0.968802    0.212159    0.241139   -0.155488    0.063899
N     0.169278   -1.530502    0.333752    0.173317   -0.212004    0.051500
C    -1.013486   -0.875739    0.188129    0.349402    0.112332   -0.039264
N    -0.831970    0.606548   -0.032497    0.542556   -0.184314   -0.080664
C     0.583167    1.266264   -0.274550   -0.246070   -0.363177    0.086688
O    -2.113843   -1.335674    0.228076   -0.048422    1.084892   -0.178724
O     0.565830    2.420049   -0.573838   -0.992768   -0.311523    0.124590
H     2.239204   -1.673303    0.354845    0.271633   -0.112536    0.114622
H     0.099186   -2.533091    0.514228    0.090697   -0.201896    0.094721
H    -1.444922    0.886451   -0.818414    0.630127   -0.281771   -0.192754
H     2.672257    0.711579   -0.172265    0.038569    0.046148    0.015126
H    -1.242310    1.089691    0.787885    0.308758   -0.119693   -0.224773
