13
* (null), Energy   -1000.0000000
C     1.365855    0.533997   -0.017795    0.089832   -0.440480    0.036465
C     1.281863   -0.788655    0.093257    0.099847   -0.459750    0.043156
N    -0.021011   -1.450395    0.118437   -0.130416    0.340634   -0.030754
C    -1.289878   -0.622329    0.007801    0.227601    0.509181   -0.020146
N    -1.064188    0.706802   -0.097341   -0.109896    0.387571   -0.038493
C     0.168081    1.391376   -0.119566   -0.036377   -0.188750    0.018939
O    -2.334795   -1.198357    0.024143    0.567379   -0.014882    0.013040
O     0.193513    2.595440   -0.217241   -0.562662   -0.196402    0.000282
H     2.123010   -1.478478    0.173803   -0.136412   -0.759924    0.044187
H    -0.114939   -2.012404    0.984263   -0.617043    0.332790   -0.092537
H    -1.901448    1.289086   -0.172072    0.035597    0.591989   -0.091702
H     2.334895    1.034094   -0.036100    0.087526   -0.437648    0.019004
H    -0.071619   -2.162707   -0.633029   -0.643924    0.415975   -0.062514
13
* Frequency(13)  542.4729
C     1.376064    0.483939   -0.013651    0.089832   -0.440480    0.036465
C     1.293210   -0.840904    0.098161    0.099847   -0.459750    0.043156
N    -0.035832   -1.411684    0.114942   -0.130416    0.340634   -0.030754
C    -1.264012   -0.564464    0.005512    0.227601    0.509181   -0.020146
N    -1.076677    0.750847   -0.101716   -0.109896    0.387571   -0.038493
C     0.163947    1.369925   -0.117414   -0.036377   -0.188750    0.018939
O    -2.270315   -1.200048    0.025625    0.567379   -0.014882    0.013040
O     0.129569    2.573120   -0.217209   -0.562662   -0.196402    0.000282
H     2.107508   -1.564839    0.178825   -0.136412   -0.759924    0.044187
H    -0.185062   -1.974584    0.973747   -0.617043    0.332790   -0.092537
H    -1.897403    1.356362   -0.182494    0.035597    0.591989   -0.091702
H     2.344842    0.984358   -0.033940    0.087526   -0.437648    0.019004
H    -0.144798   -2.115433   -0.640133   -0.643924    0.415975   -0.062514
13
* Frequency(13)  542.4729
C     1.385167    0.439305   -0.009956    0.089832   -0.440480    0.036465
C     1.303328   -0.887490    0.102534    0.099847   -0.459750    0.043156
N    -0.049047   -1.377168    0.111826   -0.130416    0.340634   -0.030754
C    -1.240949   -0.512869    0.003470    0.227601    0.509181   -0.020146
N    -1.087813    0.790120   -0.105616   -0.109896    0.387571   -0.038493
C     0.160261    1.350800   -0.115495   -0.036377   -0.188750    0.018939
O    -2.212823   -1.201556    0.026947    0.567379   -0.014882    0.013040
O     0.072555    2.553219   -0.217181   -0.562662   -0.196402    0.000282
H     2.093685   -1.641842    0.183303   -0.136412   -0.759924    0.044187
H    -0.247587   -1.940863    0.964370   -0.617043    0.332790   -0.092537
H    -1.893795    1.416349   -0.191786    0.035597    0.591989   -0.091702
H     2.353711    0.940011   -0.032015    0.087526   -0.437648    0.019004
H    -0.210046   -2.073282   -0.646468   -0.643924    0.415975   -0.062514
13
* Frequency(13)  542.4729
C     1.392176    0.404933   -0.007111    0.089832   -0.440480    0.036465
C     1.311119   -0.923366    0.105902    0.099847   -0.459750    0.043156
N    -0.059224   -1.350587    0.109426   -0.130416    0.340634   -0.030754
C    -1.223188   -0.473135    0.001898    0.227601    0.509181   -0.020146
N    -1.096388    0.820363   -0.108620   -0.109896    0.387571   -0.038493
C     0.157422    1.336071   -0.114017   -0.036377   -0.188750    0.018939
O    -2.168548   -1.202718    0.027964    0.567379   -0.014882    0.013040
O     0.028648    2.537893   -0.217159   -0.562662   -0.196402    0.000282
H     2.083040   -1.701142    0.186751   -0.136412   -0.759924    0.044187
H    -0.295737   -1.914894    0.957149   -0.617043    0.332790   -0.092537
H    -1.891018    1.462544   -0.198942    0.035597    0.591989   -0.091702
H     2.360541    0.905860   -0.030532    0.087526   -0.437648    0.019004
H    -0.260294   -2.040822   -0.651346   -0.643924    0.415975   -0.062514
13
* Frequency(13)  542.4729
C     1.396334    0.384547   -0.005423    0.089832   -0.440480    0.036465
C     1.315740   -0.944644    0.107899    0.099847   -0.459750    0.043156
N    -0.065259   -1.334821    0.108003   -0.130416    0.340634   -0.030754
C    -1.212655   -0.449570    0.000966    0.227601    0.509181   -0.020146
N    -1.101474    0.838301   -0.110402   -0.109896    0.387571   -0.038493
C     0.155739    1.327335   -0.113140   -0.036377   -0.188750    0.018939
O    -2.142289   -1.203406    0.028568    0.567379   -0.014882    0.013040
O     0.002607    2.528803   -0.217146   -0.562662   -0.196402    0.000282
H     2.076727   -1.736312    0.188796   -0.136412   -0.759924    0.044187
H    -0.324295   -1.899492    0.952867   -0.617043    0.332790   -0.092537
H    -1.889370    1.489942   -0.203186    0.035597    0.591989   -0.091702
H     2.364591    0.885605   -0.029652    0.087526   -0.437648    0.019004
H    -0.290096   -2.021570   -0.654239   -0.643924    0.415975   -0.062514
13
* Frequency(13)  542.4729
C     1.397189    0.380356   -0.005076    0.089832   -0.440480    0.036465
C     1.316690   -0.949018    0.108310    0.099847   -0.459750    0.043156
N    -0.066500   -1.331581    0.107710   -0.130416    0.340634   -0.030754
C    -1.210489   -0.444725    0.000774    0.227601    0.509181   -0.020146
N    -1.102520    0.841988   -0.110768   -0.109896    0.387571   -0.038493
C     0.155393    1.325539   -0.112960   -0.036377   -0.188750    0.018939
O    -2.136891   -1.203548    0.028692    0.567379   -0.014882    0.013040
O    -0.002746    2.526934   -0.217143   -0.562662   -0.196402    0.000282
H     2.075429   -1.743543    0.189216   -0.136412   -0.759924    0.044187
H    -0.330166   -1.896325    0.951986   -0.617043    0.332790   -0.092537
H    -1.889031    1.495574   -0.204059    0.035597    0.591989   -0.091702
H     2.365424    0.881441   -0.029471    0.087526   -0.437648    0.019004
H    -0.296223   -2.017612   -0.654834   -0.643924    0.415975   -0.062514
13
* Frequency(13)  542.4729
C     1.394648    0.392814   -0.006108    0.089832   -0.440480    0.036465
C     1.313866   -0.936015    0.107089    0.099847   -0.459750    0.043156
N    -0.062812   -1.341215    0.108580   -0.130416    0.340634   -0.030754
C    -1.216927   -0.459127    0.001344    0.227601    0.509181   -0.020146
N    -1.099412    0.831026   -0.109679   -0.109896    0.387571   -0.038493
C     0.156422    1.330878   -0.113496   -0.036377   -0.188750    0.018939
O    -2.152938   -1.203127    0.028323    0.567379   -0.014882    0.013040
O     0.013168    2.532489   -0.217151   -0.562662   -0.196402    0.000282
H     2.079287   -1.722049    0.187966   -0.136412   -0.759924    0.044187
H    -0.312714   -1.905738    0.954603   -0.617043    0.332790   -0.092537
H    -1.890038    1.478831   -0.201465    0.035597    0.591989   -0.091702
H     2.362949    0.893819   -0.030009    0.087526   -0.437648    0.019004
H    -0.278010   -2.029378   -0.653066   -0.643924    0.415975   -0.062514
13
* Frequency(13)  542.4729
C     1.388987    0.420572   -0.008406    0.089832   -0.440480    0.036465
C     1.307574   -0.907042    0.104370    0.099847   -0.459750    0.043156
N    -0.054593   -1.362681    0.110518   -0.130416    0.340634   -0.030754
C    -1.231269   -0.491214    0.002613    0.227601    0.509181   -0.020146
N    -1.092486    0.806603   -0.107253   -0.109896    0.387571   -0.038493
C     0.158714    1.342772   -0.114689   -0.036377   -0.188750    0.018939
O    -2.188693   -1.202189    0.027501    0.567379   -0.014882    0.013040
O     0.048625    2.544866   -0.217169   -0.562662   -0.196402    0.000282
H     2.087884   -1.674161    0.185182   -0.136412   -0.759924    0.044187
H    -0.273829   -1.926709    0.960435   -0.617043    0.332790   -0.092537
H    -1.892282    1.441525   -0.195686    0.035597    0.591989   -0.091702
H     2.357433    0.921398   -0.031206    0.087526   -0.437648    0.019004
H    -0.237432   -2.055592   -0.649126   -0.643924    0.415975   -0.062514
13
* Frequency(13)  542.4729
C     1.380819    0.460621   -0.011721    0.089832   -0.440480    0.036465
C     1.298496   -0.865241    0.100446    0.099847   -0.459750    0.043156
N    -0.042736   -1.393652    0.113314   -0.130416    0.340634   -0.030754
C    -1.251963   -0.537509    0.004445    0.227601    0.509181   -0.020146
N    -1.082494    0.771364   -0.103753   -0.109896    0.387571   -0.038493
C     0.162021    1.359934   -0.116411   -0.036377   -0.188750    0.018939
O    -2.240280   -1.200836    0.026316    0.567379   -0.014882    0.013040
O     0.099784    2.562723   -0.217194   -0.562662   -0.196402    0.000282
H     2.100286   -1.605067    0.181164   -0.136412   -0.759924    0.044187
H    -0.217727   -1.956967    0.968848   -0.617043    0.332790   -0.092537
H    -1.895518    1.387700   -0.187348    0.035597    0.591989   -0.091702
H     2.349475    0.961190   -0.032934    0.087526   -0.437648    0.019004
H    -0.178885   -2.093413   -0.643442   -0.643924    0.415975   -0.062514
13
* Frequency(13)  542.4729
C     1.371030    0.508622   -0.015695    0.089832   -0.440480    0.036465
C     1.287615   -0.815141    0.095743    0.099847   -0.459750    0.043156
N    -0.028524   -1.430772    0.116666   -0.130416    0.340634   -0.030754
C    -1.276766   -0.592997    0.006641    0.227601    0.509181   -0.020146
N    -1.070519    0.729129   -0.099559   -0.109896    0.387571   -0.038493
C     0.165986    1.380502   -0.118475   -0.036377   -0.188750    0.018939
O    -2.302109   -1.199214    0.024894    0.567379   -0.014882    0.013040
O     0.161099    2.584126   -0.217225   -0.562662   -0.196402    0.000282
H     2.115152   -1.522256    0.176349   -0.136412   -0.759924    0.044187
H    -0.150485   -1.993233    0.978933   -0.617043    0.332790   -0.092537
H    -1.899397    1.323189   -0.177355    0.035597    0.591989   -0.091702
H     2.339937    1.008882   -0.035005    0.087526   -0.437648    0.019004
H    -0.108714   -2.138743   -0.636630   -0.643924    0.415975   -0.062514
13
* Frequency(13)  542.4729
C     1.360680    0.559373   -0.019896    0.089832   -0.440480    0.036465
C     1.276111   -0.762170    0.090771    0.099847   -0.459750    0.043156
N    -0.013498   -1.470018    0.120209   -0.130416    0.340634   -0.030754
C    -1.302989   -0.651662    0.008962    0.227601    0.509181   -0.020146
N    -1.057857    0.684474   -0.095124   -0.109896    0.387571   -0.038493
C     0.170177    1.402249   -0.120657   -0.036377   -0.188750    0.018939
O    -2.367481   -1.197500    0.023392    0.567379   -0.014882    0.013040
O     0.225927    2.606755   -0.217257   -0.562662   -0.196402    0.000282
H     2.130868   -1.434700    0.171258   -0.136412   -0.759924    0.044187
H    -0.079392   -2.031575    0.989594   -0.617043    0.332790   -0.092537
H    -1.903499    1.254983   -0.166790    0.035597    0.591989   -0.091702
H     2.329853    1.059306   -0.037195    0.087526   -0.437648    0.019004
H    -0.034524   -2.186670   -0.629427   -0.643924    0.415975   -0.062514
13
* Frequency(13)  542.4729
C     1.350891    0.607373   -0.023870    0.089832   -0.440480    0.036465
C     1.265230   -0.712070    0.086068    0.099847   -0.459750    0.043156
N     0.000714   -1.507138    0.123560   -0.130416    0.340634   -0.030754
C    -1.327792   -0.707150    0.011157    0.227601    0.509181   -0.020146
N    -1.045881    0.642239   -0.090929   -0.109896    0.387571   -0.038493
C     0.174141    1.422818   -0.122721   -0.036377   -0.188750    0.018939
O    -2.429310   -1.195878    0.021971    0.567379   -0.014882    0.013040
O     0.287242    2.628157   -0.217288   -0.562662   -0.196402    0.000282
H     2.145734   -1.351888    0.166443   -0.136412   -0.759924    0.044187
H    -0.012151   -2.067841    0.999678   -0.617043    0.332790   -0.092537
H    -1.907378    1.190472   -0.156797    0.035597    0.591989   -0.091702
H     2.320315    1.106998   -0.039266    0.087526   -0.437648    0.019004
H     0.035647   -2.232000   -0.622615   -0.643924    0.415975   -0.062514
13
* Frequency(13)  542.4729
C     1.342723    0.647422   -0.027185    0.089832   -0.440480    0.036465
C     1.256152   -0.670268    0.082144    0.099847   -0.459750    0.043156
N     0.012572   -1.538109    0.126356   -0.130416    0.340634   -0.030754
C    -1.348486   -0.753445    0.012989    0.227601    0.509181   -0.020146
N    -1.035889    0.607001   -0.087429   -0.109896    0.387571   -0.038493
C     0.177448    1.439980   -0.124443   -0.036377   -0.188750    0.018939
O    -2.480897   -1.194525    0.020785    0.567379   -0.014882    0.013040
O     0.338400    2.646015   -0.217314   -0.562662   -0.196402    0.000282
H     2.158137   -1.282795    0.162425   -0.136412   -0.759924    0.044187
H     0.043952   -2.098099    1.008092   -0.617043    0.332790   -0.092537
H    -1.910614    1.136647   -0.148459    0.035597    0.591989   -0.091702
H     2.312357    1.146790   -0.040994    0.087526   -0.437648    0.019004
H     0.094194   -2.269822   -0.616931   -0.643924    0.415975   -0.062514
13
* Frequency(13)  542.4729
C     1.337062    0.675180   -0.029483    0.089832   -0.440480    0.036465
C     1.249860   -0.641296    0.079424    0.099847   -0.459750    0.043156
N     0.020790   -1.559575    0.128294   -0.130416    0.340634   -0.030754
C    -1.362828   -0.785532    0.014258    0.227601    0.509181   -0.020146
N    -1.028964    0.582577   -0.085003   -0.109896    0.387571   -0.038493
C     0.179741    1.451874   -0.125637   -0.036377   -0.188750    0.018939
O    -2.516652   -1.193587    0.019963    0.567379   -0.014882    0.013040
O     0.373858    2.658391   -0.217331   -0.562662   -0.196402    0.000282
H     2.166733   -1.234906    0.159640   -0.136412   -0.759924    0.044187
H     0.082837   -2.119070    1.013923   -0.617043    0.332790   -0.092537
H    -1.912858    1.099341   -0.142680    0.035597    0.591989   -0.091702
H     2.306841    1.174369   -0.042191    0.087526   -0.437648    0.019004
H     0.134772   -2.296035   -0.612992   -0.643924    0.415975   -0.062514
13
* Frequency(13)  542.4729
C     1.334521    0.687639   -0.030514    0.089832   -0.440480    0.036465
C     1.247036   -0.628293    0.078204    0.099847   -0.459750    0.043156
N     0.024479   -1.569210    0.129164   -0.130416    0.340634   -0.030754
C    -1.369266   -0.799934    0.014828    0.227601    0.509181   -0.020146
N    -1.025856    0.571615   -0.083915   -0.109896    0.387571   -0.038493
C     0.180770    1.457213   -0.126172   -0.036377   -0.188750    0.018939
O    -2.532699   -1.193166    0.019595    0.567379   -0.014882    0.013040
O     0.389772    2.663946   -0.217339   -0.562662   -0.196402    0.000282
H     2.170591   -1.213413    0.158391   -0.136412   -0.759924    0.044187
H     0.100289   -2.128483    1.016541   -0.617043    0.332790   -0.092537
H    -1.913864    1.082598   -0.140086    0.035597    0.591989   -0.091702
H     2.304365    1.186747   -0.042729    0.087526   -0.437648    0.019004
H     0.152985   -2.307801   -0.611223   -0.643924    0.415975   -0.062514
13
* Frequency(13)  542.4729
C     1.335376    0.683448   -0.030168    0.089832   -0.440480    0.036465
C     1.247986   -0.632667    0.078614    0.099847   -0.459750    0.043156
N     0.023238   -1.565969    0.128872   -0.130416    0.340634   -0.030754
C    -1.367100   -0.795089    0.014637    0.227601    0.509181   -0.020146
N    -1.026901    0.575303   -0.084281   -0.109896    0.387571   -0.038493
C     0.180423    1.455417   -0.125992   -0.036377   -0.188750    0.018939
O    -2.527301   -1.193308    0.019719    0.567379   -0.014882    0.013040
O     0.384419    2.662078   -0.217337   -0.562662   -0.196402    0.000282
H     2.169293   -1.220643    0.158811   -0.136412   -0.759924    0.044187
H     0.094418   -2.125316    1.015660   -0.617043    0.332790   -0.092537
H    -1.913526    1.088230   -0.140959    0.035597    0.591989   -0.091702
H     2.305198    1.182584   -0.042548    0.087526   -0.437648    0.019004
H     0.146858   -2.303843   -0.611818   -0.643924    0.415975   -0.062514
13
* Frequency(13)  542.4729
C     1.339533    0.663062   -0.028480    0.089832   -0.440480    0.036465
C     1.252607   -0.653945    0.080612    0.099847   -0.459750    0.043156
N     0.017202   -1.550204    0.127448   -0.130416    0.340634   -0.030754
C    -1.356567   -0.771524    0.013704    0.227601    0.509181   -0.020146
N    -1.031988    0.593240   -0.086062   -0.109896    0.387571   -0.038493
C     0.178740    1.446681   -0.125116   -0.036377   -0.188750    0.018939
O    -2.501042   -1.193997    0.020322    0.567379   -0.014882    0.013040
O     0.358378    2.652988   -0.217324   -0.562662   -0.196402    0.000282
H     2.162980   -1.255814    0.160856   -0.136412   -0.759924    0.044187
H     0.065860   -2.109914    1.011377   -0.617043    0.332790   -0.092537
H    -1.911878    1.115628   -0.145203    0.035597    0.591989   -0.091702
H     2.309249    1.162328   -0.041668    0.087526   -0.437648    0.019004
H     0.117056   -2.284591   -0.614712   -0.643924    0.415975   -0.062514
13
* Frequency(13)  542.4729
C     1.346543    0.628689   -0.025634    0.089832   -0.440480    0.036465
C     1.260398   -0.689821    0.083979    0.099847   -0.459750    0.043156
N     0.007025   -1.523623    0.125049   -0.130416    0.340634   -0.030754
C    -1.338806   -0.731790    0.012132    0.227601    0.509181   -0.020146
N    -1.040563    0.623484   -0.089066   -0.109896    0.387571   -0.038493
C     0.175901    1.431952   -0.123638   -0.036377   -0.188750    0.018939
O    -2.456767   -1.195158    0.021340    0.567379   -0.014882    0.013040
O     0.314471    2.637662   -0.217302   -0.562662   -0.196402    0.000282
H     2.152335   -1.315114    0.164304   -0.136412   -0.759924    0.044187
H     0.017710   -2.083945    1.004156   -0.617043    0.332790   -0.092537
H    -1.909100    1.161823   -0.152359    0.035597    0.591989   -0.091702
H     2.316079    1.128177   -0.040185    0.087526   -0.437648    0.019004
H     0.066808   -2.252131   -0.619590   -0.643924    0.415975   -0.062514
13
* Frequency(13)  542.4729
C     1.355646    0.584056   -0.021939    0.089832   -0.440480    0.036465
C     1.270516   -0.736407    0.088352    0.099847   -0.459750    0.043156
N    -0.006190   -1.489106    0.121932   -0.130416    0.340634   -0.030754
C    -1.315743   -0.680195    0.010091    0.227601    0.509181   -0.020146
N    -1.051699    0.662756   -0.092967   -0.109896    0.387571   -0.038493
C     0.172215    1.412826   -0.121719   -0.036377   -0.188750    0.018939
O    -2.399275   -1.196666    0.022661    0.567379   -0.014882    0.013040
O     0.257456    2.617760   -0.217273   -0.562662   -0.196402    0.000282
H     2.138513   -1.392116    0.168782   -0.136412   -0.759924    0.044187
H    -0.044815   -2.050224    0.994780   -0.617043    0.332790   -0.092537
H    -1.905493    1.221810   -0.161651    0.035597    0.591989   -0.091702
H     2.324948    1.083830   -0.038260    0.087526   -0.437648    0.019004
H     0.001560   -2.209980   -0.625924   -0.643924    0.415975   -0.062514
13
* Frequency(13)  542.4729
C     1.365855    0.533997   -0.017795    0.089832   -0.440480    0.036465
C     1.281863   -0.788655    0.093257    0.099847   -0.459750    0.043156
N    -0.021011   -1.450395    0.118437   -0.130416    0.340634   -0.030754
C    -1.289878   -0.622329    0.007801    0.227601    0.509181   -0.020146
N    -1.064188    0.706802   -0.097341   -0.109896    0.387571   -0.038493
C     0.168081    1.391376   -0.119566   -0.036377   -0.188750    0.018939
O    -2.334795   -1.198357    0.024143    0.567379   -0.014882    0.013040
O     0.193513    2.595440   -0.217241   -0.562662   -0.196402    0.000282
H     2.123010   -1.478478    0.173803   -0.136412   -0.759924    0.044187
H    -0.114939   -2.012404    0.984263   -0.617043    0.332790   -0.092537
H    -1.901448    1.289086   -0.172072    0.035597    0.591989   -0.091702
H     2.334895    1.034094   -0.036100    0.087526   -0.437648    0.019004
H    -0.071619   -2.162707   -0.633029   -0.643924    0.415975   -0.062514
