13
* (null), Energy   -1000.0000000
C     1.365855    0.533997   -0.017795    0.000065    0.000161    0.000624
C     1.281863   -0.788655    0.093257   -0.000018   -0.000209   -0.001948
N    -0.021011   -1.450395    0.118437   -0.004699    0.012852    0.159761
C    -1.289878   -0.622329    0.007801    0.000279   -0.000203   -0.001230
N    -1.064188    0.706802   -0.097341    0.000025    0.000023    0.000388
C     0.168081    1.391376   -0.119566    0.000012   -0.000064   -0.000208
O    -2.334795   -1.198357    0.024143   -0.000004   -0.000047   -0.000062
O     0.193513    2.595440   -0.217241   -0.000011    0.000023    0.000067
H     2.123010   -1.478478    0.173803    0.000743   -0.000668   -0.002650
H    -0.114939   -2.012404    0.984263    0.124522    0.781570   -1.195668
H    -1.901448    1.289086   -0.172072   -0.000490    0.000532    0.002585
H     2.334895    1.034094   -0.036100   -0.000707   -0.000011    0.003150
H    -0.071619   -2.162707   -0.633029   -0.062915   -0.956209   -0.999992
13
* Frequency(37) 3366.0127
C     1.365862    0.534016   -0.017725    0.000065    0.000161    0.000624
C     1.281861   -0.788679    0.093035   -0.000018   -0.000209   -0.001948
N    -0.021545   -1.448934    0.136593   -0.004699    0.012852    0.159761
C    -1.289846   -0.622353    0.007661    0.000279   -0.000203   -0.001230
N    -1.064185    0.706804   -0.097297    0.000025    0.000023    0.000388
C     0.168083    1.391369   -0.119590    0.000012   -0.000064   -0.000208
O    -2.334795   -1.198362    0.024136   -0.000004   -0.000047   -0.000062
O     0.193512    2.595443   -0.217234   -0.000011    0.000023    0.000067
H     2.123094   -1.478554    0.173502    0.000743   -0.000668   -0.002650
H    -0.100787   -1.923583    0.848382    0.124522    0.781570   -1.195668
H    -1.901504    1.289146   -0.171779   -0.000490    0.000532    0.002585
H     2.334814    1.034093   -0.035742   -0.000707   -0.000011    0.003150
H    -0.078769   -2.271375   -0.746673   -0.062915   -0.956209   -0.999992
13
* Frequency(37) 3366.0127
C     1.365869    0.534032   -0.017661    0.000065    0.000161    0.000624
C     1.281859   -0.788700    0.092838   -0.000018   -0.000209   -0.001948
N    -0.022021   -1.447632    0.152782   -0.004699    0.012852    0.159761
C    -1.289818   -0.622373    0.007537    0.000279   -0.000203   -0.001230
N    -1.064182    0.706807   -0.097258    0.000025    0.000023    0.000388
C     0.168084    1.391362   -0.119611    0.000012   -0.000064   -0.000208
O    -2.334796   -1.198367    0.024130   -0.000004   -0.000047   -0.000062
O     0.193510    2.595445   -0.217227   -0.000011    0.000023    0.000067
H     2.123170   -1.478621    0.173234    0.000743   -0.000668   -0.002650
H    -0.088170   -1.844386    0.727225    0.124522    0.781570   -1.195668
H    -1.901553    1.289200   -0.171517   -0.000490    0.000532    0.002585
H     2.334743    1.034092   -0.035423   -0.000707   -0.000011    0.003150
H    -0.085144   -2.368267   -0.848001   -0.062915   -0.956209   -0.999992
13
* Frequency(37) 3366.0127
C     1.365874    0.534045   -0.017613    0.000065    0.000161    0.000624
C     1.281858   -0.788717    0.092686   -0.000018   -0.000209   -0.001948
N    -0.022387   -1.446629    0.165248   -0.004699    0.012852    0.159761
C    -1.289796   -0.622389    0.007441    0.000279   -0.000203   -0.001230
N    -1.064181    0.706808   -0.097227    0.000025    0.000023    0.000388
C     0.168085    1.391357   -0.119627    0.000012   -0.000064   -0.000208
O    -2.334796   -1.198371    0.024125   -0.000004   -0.000047   -0.000062
O     0.193510    2.595447   -0.217221   -0.000011    0.000023    0.000067
H     2.123228   -1.478674    0.173027    0.000743   -0.000668   -0.002650
H    -0.078453   -1.783397    0.633923    0.124522    0.781570   -1.195668
H    -1.901591    1.289242   -0.171315   -0.000490    0.000532    0.002585
H     2.334688    1.034091   -0.035177   -0.000707   -0.000011    0.003150
H    -0.090054   -2.442884   -0.926035   -0.062915   -0.956209   -0.999992
13
* Frequency(37) 3366.0127
C     1.365877    0.534052   -0.017584    0.000065    0.000161    0.000624
C     1.281857   -0.788726    0.092596   -0.000018   -0.000209   -0.001948
N    -0.022605   -1.446034    0.172642   -0.004699    0.012852    0.159761
C    -1.289783   -0.622398    0.007384    0.000279   -0.000203   -0.001230
N    -1.064179    0.706809   -0.097209    0.000025    0.000023    0.000388
C     0.168085    1.391354   -0.119637    0.000012   -0.000064   -0.000208
O    -2.334796   -1.198373    0.024122   -0.000004   -0.000047   -0.000062
O     0.193509    2.595448   -0.217218   -0.000011    0.000023    0.000067
H     2.123262   -1.478705    0.172904    0.000743   -0.000668   -0.002650
H    -0.072690   -1.747225    0.578585    0.124522    0.781570   -1.195668
H    -1.901614    1.289266   -0.171195   -0.000490    0.000532    0.002585
H     2.334655    1.034090   -0.035031   -0.000707   -0.000011    0.003150
H    -0.092966   -2.487139   -0.972316   -0.062915   -0.956209   -0.999992
13
* Frequency(37) 3366.0127
C     1.365878    0.534053   -0.017578    0.000065    0.000161    0.000624
C     1.281857   -0.788728    0.092577   -0.000018   -0.000209   -0.001948
N    -0.022650   -1.445912    0.174163   -0.004699    0.012852    0.159761
C    -1.289780   -0.622400    0.007372    0.000279   -0.000203   -0.001230
N    -1.064179    0.706810   -0.097206    0.000025    0.000023    0.000388
C     0.168085    1.391354   -0.119639    0.000012   -0.000064   -0.000208
O    -2.334796   -1.198373    0.024121   -0.000004   -0.000047   -0.000062
O     0.193509    2.595448   -0.217218   -0.000011    0.000023    0.000067
H     2.123269   -1.478711    0.172879    0.000743   -0.000668   -0.002650
H    -0.071505   -1.739789    0.567209    0.124522    0.781570   -1.195668
H    -1.901619    1.289272   -0.171171   -0.000490    0.000532    0.002585
H     2.334648    1.034090   -0.035001   -0.000707   -0.000011    0.003150
H    -0.093564   -2.496237   -0.981831   -0.062915   -0.956209   -0.999992
13
* Frequency(37) 3366.0127
C     1.365876    0.534049   -0.017596    0.000065    0.000161    0.000624
C     1.281857   -0.788723    0.092632   -0.000018   -0.000209   -0.001948
N    -0.022517   -1.446276    0.169644   -0.004699    0.012852    0.159761
C    -1.289788   -0.622394    0.007407    0.000279   -0.000203   -0.001230
N    -1.064180    0.706809   -0.097217    0.000025    0.000023    0.000388
C     0.168085    1.391355   -0.119633    0.000012   -0.000064   -0.000208
O    -2.334796   -1.198372    0.024123   -0.000004   -0.000047   -0.000062
O     0.193509    2.595448   -0.217220   -0.000011    0.000023    0.000067
H     2.123248   -1.478692    0.172954    0.000743   -0.000668   -0.002650
H    -0.075027   -1.761895    0.601027    0.124522    0.781570   -1.195668
H    -1.901605    1.289256   -0.171244   -0.000490    0.000532    0.002585
H     2.334668    1.034091   -0.035090   -0.000707   -0.000011    0.003150
H    -0.091785   -2.469191   -0.953547   -0.062915   -0.956209   -0.999992
13
* Frequency(37) 3366.0127
C     1.365872    0.534039   -0.017635    0.000065    0.000161    0.000624
C     1.281858   -0.788709    0.092755   -0.000018   -0.000209   -0.001948
N    -0.022221   -1.447086    0.159576   -0.004699    0.012852    0.159761
C    -1.289806   -0.622382    0.007485    0.000279   -0.000203   -0.001230
N    -1.064181    0.706808   -0.097241    0.000025    0.000023    0.000388
C     0.168084    1.391359   -0.119620    0.000012   -0.000064   -0.000208
O    -2.334796   -1.198369    0.024127   -0.000004   -0.000047   -0.000062
O     0.193510    2.595446   -0.217224   -0.000011    0.000023    0.000067
H     2.123201   -1.478650    0.173121    0.000743   -0.000668   -0.002650
H    -0.082874   -1.811147    0.676375    0.124522    0.781570   -1.195668
H    -1.901574    1.289223   -0.171407   -0.000490    0.000532    0.002585
H     2.334713    1.034091   -0.035289   -0.000707   -0.000011    0.003150
H    -0.087820   -2.408934   -0.890530   -0.062915   -0.956209   -0.999992
13
* Frequency(37) 3366.0127
C     1.365866    0.534024   -0.017692    0.000065    0.000161    0.000624
C     1.281860   -0.788690    0.092932   -0.000018   -0.000209   -0.001948
N    -0.021793   -1.448254    0.145050   -0.004699    0.012852    0.159761
C    -1.289831   -0.622363    0.007596    0.000279   -0.000203   -0.001230
N    -1.064184    0.706806   -0.097276    0.000025    0.000023    0.000388
C     0.168083    1.391365   -0.119601    0.000012   -0.000064   -0.000208
O    -2.334796   -1.198365    0.024133   -0.000004   -0.000047   -0.000062
O     0.193511    2.595444   -0.217230   -0.000011    0.000023    0.000067
H     2.123134   -1.478589    0.173362    0.000743   -0.000668   -0.002650
H    -0.094196   -1.882209    0.785087    0.124522    0.781570   -1.195668
H    -1.901530    1.289175   -0.171642   -0.000490    0.000532    0.002585
H     2.334777    1.034092   -0.035575   -0.000707   -0.000011    0.003150
H    -0.082100   -2.321993   -0.799609   -0.062915   -0.956209   -0.999992
13
* Frequency(37) 3366.0127
C     1.365859    0.534007   -0.017760    0.000065    0.000161    0.000624
C     1.281862   -0.788667    0.093145   -0.000018   -0.000209   -0.001948
N    -0.021281   -1.449655    0.127641   -0.004699    0.012852    0.159761
C    -1.289861   -0.622341    0.007730    0.000279   -0.000203   -0.001230
N    -1.064186    0.706803   -0.097319    0.000025    0.000023    0.000388
C     0.168082    1.391372   -0.119578    0.000012   -0.000064   -0.000208
O    -2.334795   -1.198360    0.024140   -0.000004   -0.000047   -0.000062
O     0.193512    2.595442   -0.217237   -0.000011    0.000023    0.000067
H     2.123053   -1.478516    0.173651    0.000743   -0.000668   -0.002650
H    -0.107765   -1.967379    0.915383    0.124522    0.781570   -1.195668
H    -1.901476    1.289117   -0.171924   -0.000490    0.000532    0.002585
H     2.334854    1.034093   -0.035919   -0.000707   -0.000011    0.003150
H    -0.075243   -2.217792   -0.690636   -0.062915   -0.956209   -0.999992
13
* Frequency(37) 3366.0127
C     1.365851    0.533988   -0.017831    0.000065    0.000161    0.000624
C     1.281864   -0.788643    0.093369   -0.000018   -0.000209   -0.001948
N    -0.020740   -1.451135    0.109234   -0.004699    0.012852    0.159761
C    -1.289894   -0.622318    0.007872    0.000279   -0.000203   -0.001230
N    -1.064189    0.706800   -0.097364    0.000025    0.000023    0.000388
C     0.168080    1.391380   -0.119554    0.000012   -0.000064   -0.000208
O    -2.334795   -1.198354    0.024147   -0.000004   -0.000047   -0.000062
O     0.193513    2.595439   -0.217245   -0.000011    0.000023    0.000067
H     2.122967   -1.478439    0.173956    0.000743   -0.000668   -0.002650
H    -0.122112   -2.057429    1.053144    0.124522    0.781570   -1.195668
H    -1.901420    1.289055   -0.172221   -0.000490    0.000532    0.002585
H     2.334936    1.034095   -0.036281   -0.000707   -0.000011    0.003150
H    -0.067995   -2.107621   -0.575421   -0.062915   -0.956209   -0.999992
13
* Frequency(37) 3366.0127
C     1.365844    0.533971   -0.017899    0.000065    0.000161    0.000624
C     1.281866   -0.788621    0.093581   -0.000018   -0.000209   -0.001948
N    -0.020228   -1.452536    0.091824   -0.004699    0.012852    0.159761
C    -1.289924   -0.622296    0.008006    0.000279   -0.000203   -0.001230
N    -1.064192    0.706798   -0.097406    0.000025    0.000023    0.000388
C     0.168079    1.391387   -0.119532    0.000012   -0.000064   -0.000208
O    -2.334794   -1.198349    0.024154   -0.000004   -0.000047   -0.000062
O     0.193515    2.595436   -0.217252   -0.000011    0.000023    0.000067
H     2.122886   -1.478366    0.174245    0.000743   -0.000668   -0.002650
H    -0.135682   -2.142599    1.183440    0.124522    0.781570   -1.195668
H    -1.901366    1.288997   -0.172503   -0.000490    0.000532    0.002585
H     2.335013    1.034096   -0.036625   -0.000707   -0.000011    0.003150
H    -0.061139   -2.003420   -0.466448   -0.062915   -0.956209   -0.999992
13
* Frequency(37) 3366.0127
C     1.365838    0.533956   -0.017956    0.000065    0.000161    0.000624
C     1.281868   -0.788601    0.093758   -0.000018   -0.000209   -0.001948
N    -0.019801   -1.453705    0.077298   -0.004699    0.012852    0.159761
C    -1.289949   -0.622277    0.008118    0.000279   -0.000203   -0.001230
N    -1.064194    0.706796   -0.097441    0.000025    0.000023    0.000388
C     0.168078    1.391392   -0.119513    0.000012   -0.000064   -0.000208
O    -2.334794   -1.198345    0.024159   -0.000004   -0.000047   -0.000062
O     0.193516    2.595434   -0.217259   -0.000011    0.000023    0.000067
H     2.122819   -1.478306    0.174486    0.000743   -0.000668   -0.002650
H    -0.147003   -2.213661    1.292152    0.124522    0.781570   -1.195668
H    -1.901322    1.288949   -0.172738   -0.000490    0.000532    0.002585
H     2.335077    1.034097   -0.036911   -0.000707   -0.000011    0.003150
H    -0.055418   -1.916480   -0.375527   -0.062915   -0.956209   -0.999992
13
* Frequency(37) 3366.0127
C     1.365834    0.533946   -0.017995    0.000065    0.000161    0.000624
C     1.281869   -0.788588    0.093881   -0.000018   -0.000209   -0.001948
N    -0.019505   -1.454515    0.067231   -0.004699    0.012852    0.159761
C    -1.289967   -0.622264    0.008195    0.000279   -0.000203   -0.001230
N    -1.064196    0.706794   -0.097466    0.000025    0.000023    0.000388
C     0.168077    1.391396   -0.119500    0.000012   -0.000064   -0.000208
O    -2.334794   -1.198342    0.024163   -0.000004   -0.000047   -0.000062
O     0.193516    2.595433   -0.217263   -0.000011    0.000023    0.000067
H     2.122772   -1.478264    0.174653    0.000743   -0.000668   -0.002650
H    -0.154850   -2.262913    1.367500    0.124522    0.781570   -1.195668
H    -1.901291    1.288916   -0.172901   -0.000490    0.000532    0.002585
H     2.335121    1.034097   -0.037110   -0.000707   -0.000011    0.003150
H    -0.051453   -1.856222   -0.312511   -0.062915   -0.956209   -0.999992
13
* Frequency(37) 3366.0127
C     1.365832    0.533941   -0.018013    0.000065    0.000161    0.000624
C     1.281869   -0.788582    0.093936   -0.000018   -0.000209   -0.001948
N    -0.019372   -1.454878    0.062712   -0.004699    0.012852    0.159761
C    -1.289975   -0.622259    0.008230    0.000279   -0.000203   -0.001230
N    -1.064197    0.706794   -0.097477    0.000025    0.000023    0.000388
C     0.168077    1.391398   -0.119494    0.000012   -0.000064   -0.000208
O    -2.334794   -1.198341    0.024165   -0.000004   -0.000047   -0.000062
O     0.193517    2.595432   -0.217265   -0.000011    0.000023    0.000067
H     2.122751   -1.478245    0.174728    0.000743   -0.000668   -0.002650
H    -0.158372   -2.285019    1.401318    0.124522    0.781570   -1.195668
H    -1.901277    1.288900   -0.172974   -0.000490    0.000532    0.002585
H     2.335141    1.034098   -0.037199   -0.000707   -0.000011    0.003150
H    -0.049674   -1.829176   -0.284227   -0.062915   -0.956209   -0.999992
13
* Frequency(37) 3366.0127
C     1.365833    0.533943   -0.018007    0.000065    0.000161    0.000624
C     1.281869   -0.788584    0.093918   -0.000018   -0.000209   -0.001948
N    -0.019416   -1.454756    0.064232   -0.004699    0.012852    0.159761
C    -1.289972   -0.622261    0.008218    0.000279   -0.000203   -0.001230
N    -1.064196    0.706794   -0.097473    0.000025    0.000023    0.000388
C     0.168077    1.391398   -0.119496    0.000012   -0.000064   -0.000208
O    -2.334794   -1.198341    0.024164   -0.000004   -0.000047   -0.000062
O     0.193516    2.595432   -0.217264   -0.000011    0.000023    0.000067
H     2.122758   -1.478251    0.174703    0.000743   -0.000668   -0.002650
H    -0.157188   -2.277583    1.389942    0.124522    0.781570   -1.195668
H    -1.901282    1.288906   -0.172950   -0.000490    0.000532    0.002585
H     2.335135    1.034098   -0.037169   -0.000707   -0.000011    0.003150
H    -0.050273   -1.838274   -0.293741   -0.062915   -0.956209   -0.999992
13
* Frequency(37) 3366.0127
C     1.365836    0.533950   -0.017978    0.000065    0.000161    0.000624
C     1.281868   -0.788594    0.093827   -0.000018   -0.000209   -0.001948
N    -0.019634   -1.454161    0.071626   -0.004699    0.012852    0.159761
C    -1.289959   -0.622270    0.008161    0.000279   -0.000203   -0.001230
N    -1.064195    0.706795   -0.097455    0.000025    0.000023    0.000388
C     0.168078    1.391395   -0.119506    0.000012   -0.000064   -0.000208
O    -2.334794   -1.198343    0.024161   -0.000004   -0.000047   -0.000062
O     0.193516    2.595433   -0.217261   -0.000011    0.000023    0.000067
H     2.122792   -1.478282    0.174580    0.000743   -0.000668   -0.002650
H    -0.151424   -2.241410    1.334604    0.124522    0.781570   -1.195668
H    -1.901305    1.288930   -0.172830   -0.000490    0.000532    0.002585
H     2.335102    1.034097   -0.037023   -0.000707   -0.000011    0.003150
H    -0.053184   -1.882529   -0.340023   -0.062915   -0.956209   -0.999992
13
* Frequency(37) 3366.0127
C     1.365841    0.533963   -0.017929    0.000065    0.000161    0.000624
C     1.281867   -0.788610    0.093675   -0.000018   -0.000209   -0.001948
N    -0.020001   -1.453158    0.084093   -0.004699    0.012852    0.159761
C    -1.289937   -0.622286    0.008065    0.000279   -0.000203   -0.001230
N    -1.064193    0.706797   -0.097425    0.000025    0.000023    0.000388
C     0.168078    1.391390   -0.119522    0.000012   -0.000064   -0.000208
O    -2.334794   -1.198347    0.024157   -0.000004   -0.000047   -0.000062
O     0.193515    2.595435   -0.217256   -0.000011    0.000023    0.000067
H     2.122850   -1.478334    0.174373    0.000743   -0.000668   -0.002650
H    -0.141708   -2.180422    1.241301    0.124522    0.781570   -1.195668
H    -1.901343    1.288972   -0.172628   -0.000490    0.000532    0.002585
H     2.335047    1.034096   -0.036777   -0.000707   -0.000011    0.003150
H    -0.058094   -1.957146   -0.418056   -0.062915   -0.956209   -0.999992
13
* Frequency(37) 3366.0127
C     1.365848    0.533979   -0.017866    0.000065    0.000161    0.000624
C     1.281865   -0.788632    0.093478   -0.000018   -0.000209   -0.001948
N    -0.020477   -1.451856    0.100281   -0.004699    0.012852    0.159761
C    -1.289909   -0.622306    0.007941    0.000279   -0.000203   -0.001230
N    -1.064191    0.706799   -0.097385    0.000025    0.000023    0.000388
C     0.168080    1.391383   -0.119543    0.000012   -0.000064   -0.000208
O    -2.334795   -1.198352    0.024150   -0.000004   -0.000047   -0.000062
O     0.193514    2.595438   -0.217249   -0.000011    0.000023    0.000067
H     2.122926   -1.478402    0.174105    0.000743   -0.000668   -0.002650
H    -0.129090   -2.101225    1.120145    0.124522    0.781570   -1.195668
H    -1.901392    1.289026   -0.172366   -0.000490    0.000532    0.002585
H     2.334975    1.034095   -0.036458   -0.000707   -0.000011    0.003150
H    -0.064469   -2.054038   -0.519385   -0.062915   -0.956209   -0.999992
13
* Frequency(37) 3366.0127
C     1.365855    0.533997   -0.017795    0.000065    0.000161    0.000624
C     1.281863   -0.788655    0.093257   -0.000018   -0.000209   -0.001948
N    -0.021011   -1.450395    0.118437   -0.004699    0.012852    0.159761
C    -1.289878   -0.622329    0.007801    0.000279   -0.000203   -0.001230
N    -1.064188    0.706802   -0.097341    0.000025    0.000023    0.000388
C     0.168081    1.391376   -0.119566    0.000012   -0.000064   -0.000208
O    -2.334795   -1.198357    0.024143   -0.000004   -0.000047   -0.000062
O     0.193513    2.595440   -0.217241   -0.000011    0.000023    0.000067
H     2.123010   -1.478478    0.173803    0.000743   -0.000668   -0.002650
H    -0.114939   -2.012404    0.984263    0.124522    0.781570   -1.195668
H    -1.901448    1.289086   -0.172072   -0.000490    0.000532    0.002585
H     2.334895    1.034094   -0.036100   -0.000707   -0.000011    0.003150
H    -0.071619   -2.162707   -0.633029   -0.062915   -0.956209   -0.999992
