13
* (null), Energy   -1000.0000000
C     1.653111    0.338806   -0.072409    0.000206    0.032326    0.137852
C     1.417036   -0.968802    0.212159    0.001701   -0.060461   -0.282623
N     0.169278   -1.530502    0.333752    0.000462    0.003419    0.035940
C    -1.013486   -0.875739    0.188129   -0.003768    0.013877    0.053352
N    -0.831970    0.606548   -0.032497   -0.001961   -0.008274   -0.044294
C     0.583167    1.266264   -0.274550    0.002754    0.015844    0.063719
O    -2.113843   -1.335674    0.228076    0.000045   -0.002584   -0.010010
O     0.565830    2.420049   -0.573838   -0.000495   -0.004957   -0.011280
H     2.239204   -1.673303    0.354845    0.027685    0.374773    1.726201
H     0.099186   -2.533091    0.514228   -0.012895   -0.036380   -0.184840
H    -1.444922    0.886451   -0.818414   -0.080288    0.054310    0.038016
H     2.672257    0.711579   -0.172265   -0.014581   -0.182277   -0.820147
H    -1.242310    1.089691    0.787885    0.097401   -0.042178    0.024826
13
* Frequency(21) 1013.0086
C     1.653135    0.342480   -0.056742    0.000206    0.032326    0.137852
C     1.417230   -0.975673    0.180040    0.001701   -0.060461   -0.282623
N     0.169331   -1.530114    0.337836    0.000462    0.003419    0.035940
C    -1.013914   -0.874162    0.194193   -0.003768    0.013877    0.053352
N    -0.832192    0.605608   -0.037531   -0.001961   -0.008274   -0.044294
C     0.583480    1.268065   -0.267308    0.002754    0.015844    0.063719
O    -2.113838   -1.335967    0.226939    0.000045   -0.002584   -0.010010
O     0.565774    2.419486   -0.575120   -0.000495   -0.004957   -0.011280
H     2.242350   -1.630711    0.551018    0.027685    0.374773    1.726201
H     0.097721   -2.537226    0.493222   -0.012895   -0.036380   -0.184840
H    -1.454047    0.892623   -0.814094   -0.080288    0.054310    0.038016
H     2.670600    0.690864   -0.265470   -0.014581   -0.182277   -0.820147
H    -1.231241    1.084897    0.790706    0.097401   -0.042178    0.024826
13
* Frequency(21) 1013.0086
C     1.653156    0.345756   -0.042774    0.000206    0.032326    0.137852
C     1.417402   -0.981799    0.151402    0.001701   -0.060461   -0.282623
N     0.169378   -1.529767    0.341478    0.000462    0.003419    0.035940
C    -1.014296   -0.872756    0.199599   -0.003768    0.013877    0.053352
N    -0.832391    0.604770   -0.042019   -0.001961   -0.008274   -0.044294
C     0.583759    1.269670   -0.260852    0.002754    0.015844    0.063719
O    -2.113834   -1.336229    0.225924    0.000045   -0.002584   -0.010010
O     0.565723    2.418984   -0.576263   -0.000495   -0.004957   -0.011280
H     2.245155   -1.592736    0.725934    0.027685    0.374773    1.726201
H     0.096414   -2.540912    0.474492   -0.012895   -0.036380   -0.184840
H    -1.462182    0.898126   -0.810242   -0.080288    0.054310    0.038016
H     2.669122    0.672394   -0.348575   -0.014581   -0.182277   -0.820147
H    -1.221371    1.080623    0.793222    0.097401   -0.042178    0.024826
13
* Frequency(21) 1013.0086
C     1.653172    0.348278   -0.032017    0.000206    0.032326    0.137852
C     1.417535   -0.986517    0.129348    0.001701   -0.060461   -0.282623
N     0.169414   -1.529501    0.344283    0.000462    0.003419    0.035940
C    -1.014590   -0.871673    0.203762   -0.003768    0.013877    0.053352
N    -0.832544    0.604124   -0.045475   -0.001961   -0.008274   -0.044294
C     0.583974    1.270907   -0.255879    0.002754    0.015844    0.063719
O    -2.113830   -1.336431    0.225143    0.000045   -0.002584   -0.010010
O     0.565685    2.418597   -0.577143   -0.000495   -0.004957   -0.011280
H     2.247316   -1.563491    0.860636    0.027685    0.374773    1.726201
H     0.095408   -2.543751    0.460069   -0.012895   -0.036380   -0.184840
H    -1.468447    0.902364   -0.807275   -0.080288    0.054310    0.038016
H     2.667984    0.658171   -0.412575   -0.014581   -0.182277   -0.820147
H    -1.213771    1.077332    0.795159    0.097401   -0.042178    0.024826
13
* Frequency(21) 1013.0086
C     1.653181    0.349774   -0.025637    0.000206    0.032326    0.137852
C     1.417614   -0.989316    0.116268    0.001701   -0.060461   -0.282623
N     0.169435   -1.529342    0.345946    0.000462    0.003419    0.035940
C    -1.014765   -0.871031    0.206231   -0.003768    0.013877    0.053352
N    -0.832635    0.603741   -0.047525   -0.001961   -0.008274   -0.044294
C     0.584102    1.271640   -0.252930    0.002754    0.015844    0.063719
O    -2.113828   -1.336550    0.224680    0.000045   -0.002584   -0.010010
O     0.565662    2.418368   -0.577665   -0.000495   -0.004957   -0.011280
H     2.248597   -1.546146    0.940528    0.027685    0.374773    1.726201
H     0.094811   -2.545435    0.451514   -0.012895   -0.036380   -0.184840
H    -1.472163    0.904877   -0.805516   -0.080288    0.054310    0.038016
H     2.667309    0.649734   -0.450532   -0.014581   -0.182277   -0.820147
H    -1.209263    1.075380    0.796308    0.097401   -0.042178    0.024826
13
* Frequency(21) 1013.0086
C     1.653183    0.350082   -0.024325    0.000206    0.032326    0.137852
C     1.417630   -0.989891    0.113579    0.001701   -0.060461   -0.282623
N     0.169439   -1.529310    0.346288    0.000462    0.003419    0.035940
C    -1.014800   -0.870899    0.206739   -0.003768    0.013877    0.053352
N    -0.832653    0.603662   -0.047947   -0.001961   -0.008274   -0.044294
C     0.584128    1.271791   -0.252324    0.002754    0.015844    0.063719
O    -2.113828   -1.336575    0.224585    0.000045   -0.002584   -0.010010
O     0.565657    2.418320   -0.577772   -0.000495   -0.004957   -0.011280
H     2.248860   -1.542580    0.956951    0.027685    0.374773    1.726201
H     0.094689   -2.545781    0.449755   -0.012895   -0.036380   -0.184840
H    -1.472927    0.905394   -0.805154   -0.080288    0.054310    0.038016
H     2.667171    0.648000   -0.458336   -0.014581   -0.182277   -0.820147
H    -1.208336    1.074978    0.796544    0.097401   -0.042178    0.024826
13
* Frequency(21) 1013.0086
C     1.653177    0.349168   -0.028224    0.000206    0.032326    0.137852
C     1.417582   -0.988181    0.121572    0.001701   -0.060461   -0.282623
N     0.169426   -1.529406    0.345271    0.000462    0.003419    0.035940
C    -1.014694   -0.871292    0.205230   -0.003768    0.013877    0.053352
N    -0.832598    0.603896   -0.046694   -0.001961   -0.008274   -0.044294
C     0.584050    1.271343   -0.254126    0.002754    0.015844    0.063719
O    -2.113829   -1.336502    0.224868    0.000045   -0.002584   -0.010010
O     0.565671    2.418461   -0.577453   -0.000495   -0.004957   -0.011280
H     2.248077   -1.553180    0.908128    0.027685    0.374773    1.726201
H     0.095053   -2.544752    0.454983   -0.012895   -0.036380   -0.184840
H    -1.470656    0.903858   -0.806229   -0.080288    0.054310    0.038016
H     2.667583    0.653156   -0.435139   -0.014581   -0.182277   -0.820147
H    -1.211091    1.076171    0.795842    0.097401   -0.042178    0.024826
13
* Frequency(21) 1013.0086
C     1.653164    0.347131   -0.036911    0.000206    0.032326    0.137852
C     1.417474   -0.984371    0.139382    0.001701   -0.060461   -0.282623
N     0.169397   -1.529622    0.343007    0.000462    0.003419    0.035940
C    -1.014456   -0.872166    0.201868   -0.003768    0.013877    0.053352
N    -0.832474    0.604418   -0.043903   -0.001961   -0.008274   -0.044294
C     0.583876    1.270344   -0.258142    0.002754    0.015844    0.063719
O    -2.113832   -1.336339    0.225499    0.000045   -0.002584   -0.010010
O     0.565702    2.418773   -0.576742   -0.000495   -0.004957   -0.011280
H     2.246333   -1.576797    0.799347    0.027685    0.374773    1.726201
H     0.095866   -2.542459    0.466631   -0.012895   -0.036380   -0.184840
H    -1.465597    0.900436   -0.808625   -0.080288    0.054310    0.038016
H     2.668502    0.664642   -0.383455   -0.014581   -0.182277   -0.820147
H    -1.217229    1.078829    0.794278    0.097401   -0.042178    0.024826
13
* Frequency(21) 1013.0086
C     1.653146    0.344191   -0.049445    0.000206    0.032326    0.137852
C     1.417320   -0.978874    0.165079    0.001701   -0.060461   -0.282623
N     0.169355   -1.529933    0.339739    0.000462    0.003419    0.035940
C    -1.014114   -0.873428    0.197017   -0.003768    0.013877    0.053352
N    -0.832296    0.605170   -0.039875   -0.001961   -0.008274   -0.044294
C     0.583626    1.268904   -0.263935    0.002754    0.015844    0.063719
O    -2.113836   -1.336104    0.226409    0.000045   -0.002584   -0.010010
O     0.565747    2.419224   -0.575717   -0.000495   -0.004957   -0.011280
H     2.243816   -1.610872    0.642398    0.027685    0.374773    1.726201
H     0.097038   -2.539152    0.483437   -0.012895   -0.036380   -0.184840
H    -1.458297    0.895498   -0.812081   -0.080288    0.054310    0.038016
H     2.669828    0.681215   -0.308886   -0.014581   -0.182277   -0.820147
H    -1.226085    1.082664    0.792020    0.097401   -0.042178    0.024826
13
* Frequency(21) 1013.0086
C     1.653123    0.340669   -0.064467    0.000206    0.032326    0.137852
C     1.417134   -0.972285    0.195877    0.001701   -0.060461   -0.282623
N     0.169305   -1.530305    0.335822    0.000462    0.003419    0.035940
C    -1.013703   -0.874940    0.191203   -0.003768    0.013877    0.053352
N    -0.832082    0.606072   -0.035049   -0.001961   -0.008274   -0.044294
C     0.583326    1.267177   -0.270879    0.002754    0.015844    0.063719
O    -2.113841   -1.335822    0.227500    0.000045   -0.002584   -0.010010
O     0.565801    2.419764   -0.574488   -0.000495   -0.004957   -0.011280
H     2.240799   -1.651713    0.454288    0.027685    0.374773    1.726201
H     0.098444   -2.535187    0.503580   -0.012895   -0.036380   -0.184840
H    -1.449548    0.889579   -0.816224   -0.080288    0.054310    0.038016
H     2.671417    0.701079   -0.219512   -0.014581   -0.182277   -0.820147
H    -1.236699    1.087261    0.789315    0.097401   -0.042178    0.024826
13
* Frequency(21) 1013.0086
C     1.653099    0.336944   -0.080350    0.000206    0.032326    0.137852
C     1.416938   -0.965319    0.228440    0.001701   -0.060461   -0.282623
N     0.169252   -1.530699    0.331681    0.000462    0.003419    0.035940
C    -1.013269   -0.876539    0.185056   -0.003768    0.013877    0.053352
N    -0.831857    0.607025   -0.029945   -0.001961   -0.008274   -0.044294
C     0.583008    1.265352   -0.278220    0.002754    0.015844    0.063719
O    -2.113846   -1.335525    0.228653    0.000045   -0.002584   -0.010010
O     0.565858    2.420335   -0.573188   -0.000495   -0.004957   -0.011280
H     2.237609   -1.694892    0.255402    0.027685    0.374773    1.726201
H     0.099929   -2.530996    0.524877   -0.012895   -0.036380   -0.184840
H    -1.440297    0.883322   -0.820604   -0.080288    0.054310    0.038016
H     2.673097    0.722080   -0.125017   -0.014581   -0.182277   -0.820147
H    -1.247921    1.092120    0.786455    0.097401   -0.042178    0.024826
13
* Frequency(21) 1013.0086
C     1.653077    0.333421   -0.095372    0.000206    0.032326    0.137852
C     1.416753   -0.958730    0.259239    0.001701   -0.060461   -0.282623
N     0.169201   -1.531072    0.327765    0.000462    0.003419    0.035940
C    -1.012859   -0.878051    0.179242   -0.003768    0.013877    0.053352
N    -0.831643    0.607927   -0.025118   -0.001961   -0.008274   -0.044294
C     0.582708    1.263625   -0.285164    0.002754    0.015844    0.063719
O    -2.113851   -1.335243    0.229744    0.000045   -0.002584   -0.010010
O     0.565912    2.420875   -0.571959   -0.000495   -0.004957   -0.011280
H     2.234592   -1.735733    0.067291    0.027685    0.374773    1.726201
H     0.101334   -2.527031    0.545019   -0.012895   -0.036380   -0.184840
H    -1.431548    0.877404   -0.824747   -0.080288    0.054310    0.038016
H     2.674686    0.741943   -0.035643   -0.014581   -0.182277   -0.820147
H    -1.258535    1.096717    0.783749    0.097401   -0.042178    0.024826
13
* Frequency(21) 1013.0086
C     1.653058    0.330482   -0.107906    0.000206    0.032326    0.137852
C     1.416598   -0.953233    0.284935    0.001701   -0.060461   -0.282623
N     0.169159   -1.531383    0.324497    0.000462    0.003419    0.035940
C    -1.012516   -0.879313    0.174391   -0.003768    0.013877    0.053352
N    -0.831465    0.608679   -0.021091   -0.001961   -0.008274   -0.044294
C     0.582458    1.262185   -0.290957    0.002754    0.015844    0.063719
O    -2.113855   -1.335008    0.230654    0.000045   -0.002584   -0.010010
O     0.565957    2.421326   -0.570933   -0.000495   -0.004957   -0.011280
H     2.232075   -1.769808   -0.089658    0.027685    0.374773    1.726201
H     0.102507   -2.523723    0.561825   -0.012895   -0.036380   -0.184840
H    -1.424248    0.872466   -0.828203   -0.080288    0.054310    0.038016
H     2.676011    0.758516    0.038926   -0.014581   -0.182277   -0.820147
H    -1.267391    1.100552    0.781492    0.097401   -0.042178    0.024826
13
* Frequency(21) 1013.0086
C     1.653045    0.328445   -0.116593    0.000206    0.032326    0.137852
C     1.416491   -0.949423    0.302745    0.001701   -0.060461   -0.282623
N     0.169130   -1.531598    0.322232    0.000462    0.003419    0.035940
C    -1.012279   -0.880187    0.171029   -0.003768    0.013877    0.053352
N    -0.831341    0.609200   -0.018300   -0.001961   -0.008274   -0.044294
C     0.582284    1.261186   -0.294973    0.002754    0.015844    0.063719
O    -2.113858   -1.334845    0.231285    0.000045   -0.002584   -0.010010
O     0.565988    2.421638   -0.570222   -0.000495   -0.004957   -0.011280
H     2.230330   -1.793425   -0.198438    0.027685    0.374773    1.726201
H     0.103319   -2.521431    0.573473   -0.012895   -0.036380   -0.184840
H    -1.419188    0.869043   -0.830599   -0.080288    0.054310    0.038016
H     2.676930    0.770003    0.090610   -0.014581   -0.182277   -0.820147
H    -1.273529    1.103210    0.779927    0.097401   -0.042178    0.024826
13
* Frequency(21) 1013.0086
C     1.653039    0.327531   -0.120492    0.000206    0.032326    0.137852
C     1.416443   -0.947713    0.310739    0.001701   -0.060461   -0.282623
N     0.169117   -1.531695    0.321216    0.000462    0.003419    0.035940
C    -1.012172   -0.880580    0.169520   -0.003768    0.013877    0.053352
N    -0.831286    0.609434   -0.017047   -0.001961   -0.008274   -0.044294
C     0.582206    1.260738   -0.296775    0.002754    0.015844    0.063719
O    -2.113859   -1.334772    0.231568    0.000045   -0.002584   -0.010010
O     0.566002    2.421778   -0.569903   -0.000495   -0.004957   -0.011280
H     2.229547   -1.804025   -0.247262    0.027685    0.374773    1.726201
H     0.103684   -2.520402    0.578701   -0.012895   -0.036380   -0.184840
H    -1.416918    0.867507   -0.831674   -0.080288    0.054310    0.038016
H     2.677343    0.775158    0.113807   -0.014581   -0.182277   -0.820147
H    -1.276284    1.104403    0.779225    0.097401   -0.042178    0.024826
13
* Frequency(21) 1013.0086
C     1.653041    0.327838   -0.119180    0.000206    0.032326    0.137852
C     1.416459   -0.948288    0.308050    0.001701   -0.060461   -0.282623
N     0.169122   -1.531662    0.321558    0.000462    0.003419    0.035940
C    -1.012208   -0.880448    0.170028   -0.003768    0.013877    0.053352
N    -0.831304    0.609356   -0.017468   -0.001961   -0.008274   -0.044294
C     0.582233    1.260889   -0.296169    0.002754    0.015844    0.063719
O    -2.113859   -1.334797    0.231472    0.000045   -0.002584   -0.010010
O     0.565998    2.421731   -0.570010   -0.000495   -0.004957   -0.011280
H     2.229811   -1.800459   -0.230838    0.027685    0.374773    1.726201
H     0.103561   -2.520748    0.576943   -0.012895   -0.036380   -0.184840
H    -1.417681    0.868024   -0.831312   -0.080288    0.054310    0.038016
H     2.677204    0.773424    0.106003   -0.014581   -0.182277   -0.820147
H    -1.275357    1.104001    0.779461    0.097401   -0.042178    0.024826
13
* Frequency(21) 1013.0086
C     1.653051    0.329335   -0.112800    0.000206    0.032326    0.137852
C     1.416538   -0.951086    0.294970    0.001701   -0.060461   -0.282623
N     0.169143   -1.531504    0.323221    0.000462    0.003419    0.035940
C    -1.012382   -0.879805    0.172497   -0.003768    0.013877    0.053352
N    -0.831395    0.608973   -0.019518   -0.001961   -0.008274   -0.044294
C     0.582360    1.261622   -0.293220    0.002754    0.015844    0.063719
O    -2.113857   -1.334916    0.231009    0.000045   -0.002584   -0.010010
O     0.565975    2.421502   -0.570533   -0.000495   -0.004957   -0.011280
H     2.231092   -1.783114   -0.150946    0.027685    0.374773    1.726201
H     0.102965   -2.522432    0.568388   -0.012895   -0.036380   -0.184840
H    -1.421397    0.870537   -0.829553   -0.080288    0.054310    0.038016
H     2.676529    0.764988    0.068045   -0.014581   -0.182277   -0.820147
H    -1.270850    1.102049    0.780611    0.097401   -0.042178    0.024826
13
* Frequency(21) 1013.0086
C     1.653067    0.331857   -0.102043    0.000206    0.032326    0.137852
C     1.416671   -0.955804    0.272915    0.001701   -0.060461   -0.282623
N     0.169179   -1.531237    0.326026    0.000462    0.003419    0.035940
C    -1.012676   -0.878723    0.176660   -0.003768    0.013877    0.053352
N    -0.831548    0.608327   -0.022975   -0.001961   -0.008274   -0.044294
C     0.582575    1.262858   -0.288247    0.002754    0.015844    0.063719
O    -2.113853   -1.335118    0.230228    0.000045   -0.002584   -0.010010
O     0.565936    2.421115   -0.571413   -0.000495   -0.004957   -0.011280
H     2.233252   -1.753869   -0.016244    0.027685    0.374773    1.726201
H     0.101958   -2.525271    0.553964   -0.012895   -0.036380   -0.184840
H    -1.427662    0.874775   -0.826586   -0.080288    0.054310    0.038016
H     2.675391    0.750764    0.004046   -0.014581   -0.182277   -0.820147
H    -1.263249    1.098758    0.782548    0.097401   -0.042178    0.024826
13
* Frequency(21) 1013.0086
C     1.653088    0.335133   -0.088075    0.000206    0.032326    0.137852
C     1.416843   -0.961931    0.244277    0.001701   -0.060461   -0.282623
N     0.169226   -1.530891    0.329667    0.000462    0.003419    0.035940
C    -1.013058   -0.877316    0.182066   -0.003768    0.013877    0.053352
N    -0.831747    0.607489   -0.027463   -0.001961   -0.008274   -0.044294
C     0.582854    1.264464   -0.281791    0.002754    0.015844    0.063719
O    -2.113848   -1.335380    0.229214    0.000045   -0.002584   -0.010010
O     0.565886    2.420613   -0.572556   -0.000495   -0.004957   -0.011280
H     2.236058   -1.715894    0.158671    0.027685    0.374773    1.726201
H     0.100652   -2.528957    0.535234   -0.012895   -0.036380   -0.184840
H    -1.435798    0.880279   -0.822734   -0.080288    0.054310    0.038016
H     2.673914    0.732294   -0.079059   -0.014581   -0.182277   -0.820147
H    -1.253379    1.094484    0.785063    0.097401   -0.042178    0.024826
13
* Frequency(21) 1013.0086
C     1.653111    0.338806   -0.072409    0.000206    0.032326    0.137852
C     1.417036   -0.968802    0.212159    0.001701   -0.060461   -0.282623
N     0.169278   -1.530502    0.333752    0.000462    0.003419    0.035940
C    -1.013486   -0.875739    0.188129   -0.003768    0.013877    0.053352
N    -0.831970    0.606548   -0.032497   -0.001961   -0.008274   -0.044294
C     0.583167    1.266264   -0.274550    0.002754    0.015844    0.063719
O    -2.113843   -1.335674    0.228076    0.000045   -0.002584   -0.010010
O     0.565830    2.420049   -0.573838   -0.000495   -0.004957   -0.011280
H     2.239204   -1.673303    0.354845    0.027685    0.374773    1.726201
H     0.099186   -2.533091    0.514228   -0.012895   -0.036380   -0.184840
H    -1.444922    0.886451   -0.818414   -0.080288    0.054310    0.038016
H     2.672257    0.711579   -0.172265   -0.014581   -0.182277   -0.820147
H    -1.242310    1.089691    0.787885    0.097401   -0.042178    0.024826
