13
* (null), Energy   -1000.0000000
C     1.365855    0.533997   -0.017795   -0.005649    0.020476    0.229917
C     1.281863   -0.788655    0.093257   -0.005535    0.019868    0.218327
N    -0.021011   -1.450395    0.118437    0.011375   -0.035466   -0.379177
C    -1.289878   -0.622329    0.007801   -0.002254    0.003869    0.051397
N    -1.064188    0.706802   -0.097341    0.001488   -0.002774   -0.026130
C     0.168081    1.391376   -0.119566    0.001339   -0.002541   -0.037257
O    -2.334795   -1.198357    0.024143   -0.008928    0.021297    0.233264
O     0.193513    2.595440   -0.217241    0.004121   -0.012852   -0.162811
H     2.123010   -1.478478    0.173803   -0.009816    0.040387    0.441718
H    -0.114939   -2.012404    0.984263   -0.090331   -0.852720   -0.930375
H    -1.901448    1.289086   -0.172072   -0.000589    0.003172    0.043400
H     2.334895    1.034094   -0.036100   -0.012422    0.044059    0.514191
H    -0.071619   -2.162707   -0.633029    0.154860    0.665876   -1.064688
13
* Frequency(6) -159.8501
C     1.365213    0.536324    0.008333   -0.005649    0.020476    0.229917
C     1.281234   -0.786398    0.118068   -0.005535    0.019868    0.218327
N    -0.019718   -1.454426    0.075346    0.011375   -0.035466   -0.379177
C    -1.290134   -0.621890    0.013642   -0.002254    0.003869    0.051397
N    -1.064019    0.706486   -0.100311    0.001488   -0.002774   -0.026130
C     0.168233    1.391087   -0.123800    0.001339   -0.002541   -0.037257
O    -2.335810   -1.195937    0.050652   -0.008928    0.021297    0.233264
O     0.193981    2.593980   -0.235744    0.004121   -0.012852   -0.162811
H     2.121894   -1.473888    0.224002   -0.009816    0.040387    0.441718
H    -0.125204   -2.109311    0.878531   -0.090331   -0.852720   -0.930375
H    -1.901515    1.289447   -0.167140   -0.000589    0.003172    0.043400
H     2.333483    1.039101    0.022335   -0.012422    0.044059    0.514191
H    -0.054020   -2.087033   -0.754025    0.154860    0.665876   -1.064688
13
* Frequency(6) -159.8501
C     1.364641    0.538399    0.031631   -0.005649    0.020476    0.229917
C     1.280673   -0.784384    0.140191   -0.005535    0.019868    0.218327
N    -0.018565   -1.458019    0.036924    0.011375   -0.035466   -0.379177
C    -1.290362   -0.621498    0.018850   -0.002254    0.003869    0.051397
N    -1.063868    0.706205   -0.102958    0.001488   -0.002774   -0.026130
C     0.168369    1.390830   -0.127576    0.001339   -0.002541   -0.037257
O    -2.336714   -1.193779    0.074289   -0.008928    0.021297    0.233264
O     0.194399    2.592677   -0.252241    0.004121   -0.012852   -0.162811
H     2.120900   -1.469796    0.268762   -0.009816    0.040387    0.441718
H    -0.134357   -2.195717    0.784256   -0.090331   -0.852720   -0.930375
H    -1.901575    1.289768   -0.162743   -0.000589    0.003172    0.043400
H     2.332224    1.043566    0.074438   -0.012422    0.044059    0.514191
H    -0.038328   -2.019560   -0.861909    0.154860    0.665876   -1.064688
13
* Frequency(6) -159.8501
C     1.364200    0.539997    0.049572   -0.005649    0.020476    0.229917
C     1.280241   -0.782834    0.157228   -0.005535    0.019868    0.218327
N    -0.017678   -1.460787    0.007335    0.011375   -0.035466   -0.379177
C    -1.290538   -0.621196    0.022861   -0.002254    0.003869    0.051397
N    -1.063752    0.705989   -0.104997    0.001488   -0.002774   -0.026130
C     0.168474    1.390631   -0.130483    0.001339   -0.002541   -0.037257
O    -2.337411   -1.192117    0.092491   -0.008928    0.021297    0.233264
O     0.194720    2.591675   -0.264946    0.004121   -0.012852   -0.162811
H     2.120134   -1.466644    0.303230   -0.009816    0.040387    0.441718
H    -0.141406   -2.262258    0.711656   -0.090331   -0.852720   -0.930375
H    -1.901620    1.290016   -0.159356   -0.000589    0.003172    0.043400
H     2.331255    1.047004    0.114562   -0.012422    0.044059    0.514191
H    -0.026244   -1.967599   -0.944991    0.154860    0.665876   -1.064688
13
* Frequency(6) -159.8501
C     1.363938    0.540945    0.060213   -0.005649    0.020476    0.229917
C     1.279985   -0.781914    0.167333   -0.005535    0.019868    0.218327
N    -0.017151   -1.462428   -0.010214    0.011375   -0.035466   -0.379177
C    -1.290642   -0.621017    0.025240   -0.002254    0.003869    0.051397
N    -1.063683    0.705861   -0.106207    0.001488   -0.002774   -0.026130
C     0.168536    1.390514   -0.132207    0.001339   -0.002541   -0.037257
O    -2.337824   -1.191131    0.103287   -0.008928    0.021297    0.233264
O     0.194911    2.591080   -0.272481    0.004121   -0.012852   -0.162811
H     2.119680   -1.464775    0.323674   -0.009816    0.040387    0.441718
H    -0.145587   -2.301723    0.668596   -0.090331   -0.852720   -0.930375
H    -1.901648    1.290162   -0.157347   -0.000589    0.003172    0.043400
H     2.330680    1.049043    0.138360   -0.012422    0.044059    0.514191
H    -0.019076   -1.936781   -0.994267    0.154860    0.665876   -1.064688
13
* Frequency(6) -159.8501
C     1.363885    0.541139    0.062401   -0.005649    0.020476    0.229917
C     1.279932   -0.781725    0.169410   -0.005535    0.019868    0.218327
N    -0.017043   -1.462766   -0.013822    0.011375   -0.035466   -0.379177
C    -1.290664   -0.620980    0.025729   -0.002254    0.003869    0.051397
N    -1.063669    0.705834   -0.106455    0.001488   -0.002774   -0.026130
C     0.168548    1.390490   -0.132562    0.001339   -0.002541   -0.037257
O    -2.337909   -1.190928    0.105507   -0.008928    0.021297    0.233264
O     0.194950    2.590958   -0.274031    0.004121   -0.012852   -0.162811
H     2.119586   -1.464391    0.327877   -0.009816    0.040387    0.441718
H    -0.146446   -2.309837    0.659744   -0.090331   -0.852720   -0.930375
H    -1.901653    1.290193   -0.156934   -0.000589    0.003172    0.043400
H     2.330562    1.049462    0.143252   -0.012422    0.044059    0.514191
H    -0.017603   -1.930446   -1.004397    0.154860    0.665876   -1.064688
13
* Frequency(6) -159.8501
C     1.364044    0.540560    0.055898   -0.005649    0.020476    0.229917
C     1.280089   -0.782287    0.163235   -0.005535    0.019868    0.218327
N    -0.017365   -1.461763   -0.003097    0.011375   -0.035466   -0.379177
C    -1.290600   -0.621089    0.024275   -0.002254    0.003869    0.051397
N    -1.063711    0.705913   -0.105716    0.001488   -0.002774   -0.026130
C     0.168510    1.390562   -0.131508    0.001339   -0.002541   -0.037257
O    -2.337657   -1.191531    0.098909   -0.008928    0.021297    0.233264
O     0.194834    2.591321   -0.269426    0.004121   -0.012852   -0.162811
H     2.119864   -1.465533    0.315383   -0.009816    0.040387    0.441718
H    -0.143891   -2.285718    0.686059   -0.090331   -0.852720   -0.930375
H    -1.901637    1.290103   -0.158162   -0.000589    0.003172    0.043400
H     2.330913    1.048216    0.128709   -0.012422    0.044059    0.514191
H    -0.021983   -1.949279   -0.974283    0.154860    0.665876   -1.064688
13
* Frequency(6) -159.8501
C     1.364400    0.539270    0.041409   -0.005649    0.020476    0.229917
C     1.280438   -0.783539    0.149477   -0.005535    0.019868    0.218327
N    -0.018081   -1.459528    0.020798    0.011375   -0.035466   -0.379177
C    -1.290458   -0.621333    0.021036   -0.002254    0.003869    0.051397
N    -1.063805    0.706087   -0.104070    0.001488   -0.002774   -0.026130
C     0.168426    1.390722   -0.129160    0.001339   -0.002541   -0.037257
O    -2.337094   -1.192873    0.084209   -0.008928    0.021297    0.233264
O     0.194574    2.592131   -0.259166    0.004121   -0.012852   -0.162811
H     2.120482   -1.468078    0.287547   -0.009816    0.040387    0.441718
H    -0.138199   -2.231982    0.744689   -0.090331   -0.852720   -0.930375
H    -1.901600    1.289903   -0.160897   -0.000589    0.003172    0.043400
H     2.331696    1.045439    0.096306   -0.012422    0.044059    0.514191
H    -0.031742   -1.991241   -0.907189    0.154860    0.665876   -1.064688
13
* Frequency(6) -159.8501
C     1.364914    0.537408    0.020504   -0.005649    0.020476    0.229917
C     1.280941   -0.785346    0.129626   -0.005535    0.019868    0.218327
N    -0.019116   -1.456303    0.055273    0.011375   -0.035466   -0.379177
C    -1.290253   -0.621685    0.016363   -0.002254    0.003869    0.051397
N    -1.063940    0.706340   -0.101694    0.001488   -0.002774   -0.026130
C     0.168304    1.390953   -0.125773    0.001339   -0.002541   -0.037257
O    -2.336282   -1.194809    0.063001   -0.008928    0.021297    0.233264
O     0.194199    2.593299   -0.244363    0.004121   -0.012852   -0.162811
H     2.121375   -1.471750    0.247386   -0.009816    0.040387    0.441718
H    -0.129986   -2.154451    0.829280   -0.090331   -0.852720   -0.930375
H    -1.901546    1.289614   -0.164843   -0.000589    0.003172    0.043400
H     2.332826    1.041434    0.049555   -0.012422    0.044059    0.514191
H    -0.045822   -2.051784   -0.810386    0.154860    0.665876   -1.064688
13
* Frequency(6) -159.8501
C     1.365530    0.535177   -0.004550   -0.005649    0.020476    0.229917
C     1.281544   -0.787511    0.105834   -0.005535    0.019868    0.218327
N    -0.020355   -1.452438    0.096594    0.011375   -0.035466   -0.379177
C    -1.290007   -0.622107    0.010762   -0.002254    0.003869    0.051397
N    -1.064102    0.706642   -0.098846    0.001488   -0.002774   -0.026130
C     0.168158    1.391230   -0.121713    0.001339   -0.002541   -0.037257
O    -2.335309   -1.197130    0.037581   -0.008928    0.021297    0.233264
O     0.193750    2.594700   -0.226620    0.004121   -0.012852   -0.162811
H     2.122445   -1.476151    0.199250   -0.009816    0.040387    0.441718
H    -0.120142   -2.061528    0.930666   -0.090331   -0.852720   -0.930375
H    -1.901482    1.289269   -0.169572   -0.000589    0.003172    0.043400
H     2.334179    1.036632   -0.006478   -0.012422    0.044059    0.514191
H    -0.062698   -2.124347   -0.694363    0.154860    0.665876   -1.064688
13
* Frequency(6) -159.8501
C     1.366180    0.532818   -0.031041   -0.005649    0.020476    0.229917
C     1.282182   -0.789800    0.080679   -0.005535    0.019868    0.218327
N    -0.021666   -1.448352    0.140281    0.011375   -0.035466   -0.379177
C    -1.289748   -0.622552    0.004840   -0.002254    0.003869    0.051397
N    -1.064274    0.706961   -0.095836    0.001488   -0.002774   -0.026130
C     0.168004    1.391522   -0.117420    0.001339   -0.002541   -0.037257
O    -2.334281   -1.199584    0.010705   -0.008928    0.021297    0.233264
O     0.193275    2.596181   -0.207862    0.004121   -0.012852   -0.162811
H     2.123575   -1.480804    0.148357   -0.009816    0.040387    0.441718
H    -0.109735   -1.963280    1.037861   -0.090331   -0.852720   -0.930375
H    -1.901414    1.288903   -0.174573   -0.000589    0.003172    0.043400
H     2.335610    1.031556   -0.065722   -0.012422    0.044059    0.514191
H    -0.080540   -2.201066   -0.571694    0.154860    0.665876   -1.064688
13
* Frequency(6) -159.8501
C     1.366796    0.530586   -0.056095   -0.005649    0.020476    0.229917
C     1.282785   -0.791965    0.056887   -0.005535    0.019868    0.218327
N    -0.022906   -1.444487    0.181601    0.011375   -0.035466   -0.379177
C    -1.289502   -0.622974   -0.000761   -0.002254    0.003869    0.051397
N    -1.064436    0.707264   -0.092988    0.001488   -0.002774   -0.026130
C     0.167858    1.391799   -0.113360    0.001339   -0.002541   -0.037257
O    -2.333308   -1.201905   -0.014714   -0.008928    0.021297    0.233264
O     0.192826    2.597581   -0.190120    0.004121   -0.012852   -0.162811
H     2.124645   -1.485205    0.100221   -0.009816    0.040387    0.441718
H    -0.099891   -1.870357    1.139247   -0.090331   -0.852720   -0.930375
H    -1.901350    1.288558   -0.179302   -0.000589    0.003172    0.043400
H     2.336964    1.026755   -0.121755   -0.012422    0.044059    0.514191
H    -0.097416   -2.273629   -0.455671    0.154860    0.665876   -1.064688
13
* Frequency(6) -159.8501
C     1.367310    0.528725   -0.077000   -0.005649    0.020476    0.229917
C     1.283288   -0.793771    0.037037   -0.005535    0.019868    0.218327
N    -0.023940   -1.441262    0.216077    0.011375   -0.035466   -0.379177
C    -1.289297   -0.623326   -0.005434   -0.002254    0.003869    0.051397
N    -1.064571    0.707516   -0.090613    0.001488   -0.002774   -0.026130
C     0.167736    1.392030   -0.109973    0.001339   -0.002541   -0.037257
O    -2.332496   -1.203841   -0.035923   -0.008928    0.021297    0.233264
O     0.192451    2.598750   -0.175317    0.004121   -0.012852   -0.162811
H     2.125538   -1.488877    0.060060   -0.009816    0.040387    0.441718
H    -0.091678   -1.792826    1.223838   -0.090331   -0.852720   -0.930375
H    -1.901296    1.288269   -0.183248   -0.000589    0.003172    0.043400
H     2.338093    1.022749   -0.168506   -0.012422    0.044059    0.514191
H    -0.111496   -2.334172   -0.358868    0.154860    0.665876   -1.064688
13
* Frequency(6) -159.8501
C     1.367666    0.527434   -0.091489   -0.005649    0.020476    0.229917
C     1.283637   -0.795023    0.023278   -0.005535    0.019868    0.218327
N    -0.024657   -1.439027    0.239971    0.011375   -0.035466   -0.379177
C    -1.289155   -0.623570   -0.008673   -0.002254    0.003869    0.051397
N    -1.064665    0.707691   -0.088966    0.001488   -0.002774   -0.026130
C     0.167652    1.392190   -0.107625    0.001339   -0.002541   -0.037257
O    -2.331933   -1.205183   -0.050623   -0.008928    0.021297    0.233264
O     0.192192    2.599560   -0.165057    0.004121   -0.012852   -0.162811
H     2.126156   -1.491422    0.032224   -0.009816    0.040387    0.441718
H    -0.085986   -1.739090    1.282468   -0.090331   -0.852720   -0.930375
H    -1.901259    1.288069   -0.185983   -0.000589    0.003172    0.043400
H     2.338876    1.019972   -0.200909   -0.012422    0.044059    0.514191
H    -0.121255   -2.376134   -0.291774    0.154860    0.665876   -1.064688
13
* Frequency(6) -159.8501
C     1.367825    0.526855   -0.097991   -0.005649    0.020476    0.229917
C     1.283794   -0.795585    0.017103   -0.005535    0.019868    0.218327
N    -0.024978   -1.438024    0.250696    0.011375   -0.035466   -0.379177
C    -1.289091   -0.623679   -0.010126   -0.002254    0.003869    0.051397
N    -1.064707    0.707769   -0.088227    0.001488   -0.002774   -0.026130
C     0.167614    1.392262   -0.106571    0.001339   -0.002541   -0.037257
O    -2.331681   -1.205786   -0.057220   -0.008928    0.021297    0.233264
O     0.192075    2.599923   -0.160452    0.004121   -0.012852   -0.162811
H     2.126434   -1.492565    0.019730   -0.009816    0.040387    0.441718
H    -0.083431   -1.714971    1.308783   -0.090331   -0.852720   -0.930375
H    -1.901243    1.287979   -0.187210   -0.000589    0.003172    0.043400
H     2.339227    1.018726   -0.215452   -0.012422    0.044059    0.514191
H    -0.125635   -2.394967   -0.261661    0.154860    0.665876   -1.064688
13
* Frequency(6) -159.8501
C     1.367772    0.527050   -0.095804   -0.005649    0.020476    0.229917
C     1.283741   -0.795396    0.019181   -0.005535    0.019868    0.218327
N    -0.024870   -1.438362    0.247088    0.011375   -0.035466   -0.379177
C    -1.289113   -0.623642   -0.009637   -0.002254    0.003869    0.051397
N    -1.064693    0.707743   -0.088476    0.001488   -0.002774   -0.026130
C     0.167627    1.392238   -0.106925    0.001339   -0.002541   -0.037257
O    -2.331766   -1.205583   -0.055001   -0.008928    0.021297    0.233264
O     0.192114    2.599801   -0.162001    0.004121   -0.012852   -0.162811
H     2.126340   -1.492180    0.023933   -0.009816    0.040387    0.441718
H    -0.084290   -1.723085    1.299931   -0.090331   -0.852720   -0.930375
H    -1.901248    1.288010   -0.186798   -0.000589    0.003172    0.043400
H     2.339109    1.019145   -0.210560   -0.012422    0.044059    0.514191
H    -0.124162   -2.388632   -0.271790    0.154860    0.665876   -1.064688
13
* Frequency(6) -159.8501
C     1.367510    0.527998   -0.085163   -0.005649    0.020476    0.229917
C     1.283485   -0.794477    0.029285   -0.005535    0.019868    0.218327
N    -0.024344   -1.440003    0.229539    0.011375   -0.035466   -0.379177
C    -1.289217   -0.623463   -0.007259   -0.002254    0.003869    0.051397
N    -1.064624    0.707614   -0.089685    0.001488   -0.002774   -0.026130
C     0.167689    1.392120   -0.108650    0.001339   -0.002541   -0.037257
O    -2.332179   -1.204597   -0.044205   -0.008928    0.021297    0.233264
O     0.192305    2.599206   -0.169536    0.004121   -0.012852   -0.162811
H     2.125886   -1.490311    0.044376   -0.009816    0.040387    0.441718
H    -0.088471   -1.762550    1.256871   -0.090331   -0.852720   -0.930375
H    -1.901275    1.288156   -0.184789   -0.000589    0.003172    0.043400
H     2.338534    1.021184   -0.186762   -0.012422    0.044059    0.514191
H    -0.116994   -2.357814   -0.321066    0.154860    0.665876   -1.064688
13
* Frequency(6) -159.8501
C     1.367069    0.529596   -0.067222   -0.005649    0.020476    0.229917
C     1.283053   -0.792927    0.046322   -0.005535    0.019868    0.218327
N    -0.023456   -1.442771    0.199951    0.011375   -0.035466   -0.379177
C    -1.289393   -0.623161   -0.003248   -0.002254    0.003869    0.051397
N    -1.064508    0.707398   -0.091724    0.001488   -0.002774   -0.026130
C     0.167793    1.391922   -0.111557    0.001339   -0.002541   -0.037257
O    -2.332876   -1.202936   -0.026003   -0.008928    0.021297    0.233264
O     0.192627    2.598203   -0.182241    0.004121   -0.012852   -0.162811
H     2.125120   -1.487160    0.078845   -0.009816    0.040387    0.441718
H    -0.095520   -1.829091    1.184270   -0.090331   -0.852720   -0.930375
H    -1.901321    1.288404   -0.181402   -0.000589    0.003172    0.043400
H     2.337565    1.024622   -0.146638   -0.012422    0.044059    0.514191
H    -0.104910   -2.305853   -0.404148    0.154860    0.665876   -1.064688
13
* Frequency(6) -159.8501
C     1.366497    0.531670   -0.043924   -0.005649    0.020476    0.229917
C     1.282492   -0.790913    0.068445   -0.005535    0.019868    0.218327
N    -0.022303   -1.446365    0.161529    0.011375   -0.035466   -0.379177
C    -1.289621   -0.622769    0.001960   -0.002254    0.003869    0.051397
N    -1.064357    0.707117   -0.094372    0.001488   -0.002774   -0.026130
C     0.167929    1.391665   -0.115332    0.001339   -0.002541   -0.037257
O    -2.333780   -1.200777   -0.002366   -0.008928    0.021297    0.233264
O     0.193044    2.596901   -0.198739    0.004121   -0.012852   -0.162811
H     2.124126   -1.483067    0.123605   -0.009816    0.040387    0.441718
H    -0.104673   -1.915497    1.089996   -0.090331   -0.852720   -0.930375
H    -1.901381    1.288725   -0.177005   -0.000589    0.003172    0.043400
H     2.336306    1.029087   -0.094535   -0.012422    0.044059    0.514191
H    -0.089218   -2.238380   -0.512032    0.154860    0.665876   -1.064688
13
* Frequency(6) -159.8501
C     1.365855    0.533997   -0.017795   -0.005649    0.020476    0.229917
C     1.281863   -0.788655    0.093257   -0.005535    0.019868    0.218327
N    -0.021011   -1.450395    0.118437    0.011375   -0.035466   -0.379177
C    -1.289878   -0.622329    0.007801   -0.002254    0.003869    0.051397
N    -1.064188    0.706802   -0.097341    0.001488   -0.002774   -0.026130
C     0.168081    1.391376   -0.119566    0.001339   -0.002541   -0.037257
O    -2.334795   -1.198357    0.024143   -0.008928    0.021297    0.233264
O     0.193513    2.595440   -0.217241    0.004121   -0.012852   -0.162811
H     2.123010   -1.478478    0.173803   -0.009816    0.040387    0.441718
H    -0.114939   -2.012404    0.984263   -0.090331   -0.852720   -0.930375
H    -1.901448    1.289086   -0.172072   -0.000589    0.003172    0.043400
H     2.334895    1.034094   -0.036100   -0.012422    0.044059    0.514191
H    -0.071619   -2.162707   -0.633029    0.154860    0.665876   -1.064688
