13
* (null), Energy   -1000.0000000
C     1.653111    0.338806   -0.072409    0.152754    0.063734   -0.016527
C     1.417036   -0.968802    0.212159    0.047189   -0.053551    0.010978
N     0.169278   -1.530502    0.333752   -0.002871   -0.000031    0.000045
C    -1.013486   -0.875739    0.188129   -0.000314   -0.000340    0.000068
N    -0.831970    0.606548   -0.032497   -0.000519   -0.000455    0.000004
C     0.583167    1.266264   -0.274550   -0.003520    0.004254   -0.001030
O    -2.113843   -1.335674    0.228076   -0.000049    0.000018   -0.000007
O     0.565830    2.420049   -0.573838    0.000285   -0.000814    0.000217
H     2.239204   -1.673303    0.354845   -0.560321    0.486430   -0.097885
H     0.099186   -2.533091    0.514228    0.002896   -0.012770    0.002116
H    -1.444922    0.886451   -0.818414   -0.004920    0.001801   -0.006411
H     2.672257    0.711579   -0.172265   -1.727330   -0.628239    0.168016
H    -1.242310    1.089691    0.787885   -0.003750    0.004199    0.007743
13
* Frequency(35) 3244.9494
C     1.670471    0.346049   -0.074287    0.152754    0.063734   -0.016527
C     1.422399   -0.974888    0.213406    0.047189   -0.053551    0.010978
N     0.168952   -1.530506    0.333757   -0.002871   -0.000031    0.000045
C    -1.013522   -0.875778    0.188137   -0.000314   -0.000340    0.000068
N    -0.832028    0.606497   -0.032496   -0.000519   -0.000455    0.000004
C     0.582767    1.266748   -0.274667   -0.003520    0.004254   -0.001030
O    -2.113849   -1.335672    0.228075   -0.000049    0.000018   -0.000007
O     0.565862    2.419957   -0.573813    0.000285   -0.000814    0.000217
H     2.175526   -1.618022    0.343721   -0.560321    0.486430   -0.097885
H     0.099516   -2.534543    0.514469    0.002896   -0.012770    0.002116
H    -1.445481    0.886655   -0.819143   -0.004920    0.001801   -0.006411
H     2.475955    0.640183   -0.153170   -1.727330   -0.628239    0.168016
H    -1.242736    1.090168    0.788765   -0.003750    0.004199    0.007743
13
* Frequency(35) 3244.9494
C     1.685950    0.352508   -0.075961    0.152754    0.063734   -0.016527
C     1.427181   -0.980314    0.214519    0.047189   -0.053551    0.010978
N     0.168661   -1.530509    0.333762   -0.002871   -0.000031    0.000045
C    -1.013554   -0.875813    0.188144   -0.000314   -0.000340    0.000068
N    -0.832081    0.606450   -0.032496   -0.000519   -0.000455    0.000004
C     0.582410    1.267179   -0.274771   -0.003520    0.004254   -0.001030
O    -2.113854   -1.335670    0.228075   -0.000049    0.000018   -0.000007
O     0.565891    2.419874   -0.573791    0.000285   -0.000814    0.000217
H     2.118749   -1.568733    0.333802   -0.560321    0.486430   -0.097885
H     0.099809   -2.535837    0.514683    0.002896   -0.012770    0.002116
H    -1.445980    0.886838   -0.819792   -0.004920    0.001801   -0.006411
H     2.300925    0.576524   -0.136145   -1.727330   -0.628239    0.168016
H    -1.243116    1.090593    0.789549   -0.003750    0.004199    0.007743
13
* Frequency(35) 3244.9494
C     1.697869    0.357481   -0.077251    0.152754    0.063734   -0.016527
C     1.430863   -0.984493    0.215375    0.047189   -0.053551    0.010978
N     0.168437   -1.530512    0.333765   -0.002871   -0.000031    0.000045
C    -1.013578   -0.875839    0.188149   -0.000314   -0.000340    0.000068
N    -0.832121    0.606415   -0.032496   -0.000519   -0.000455    0.000004
C     0.582136    1.267511   -0.274851   -0.003520    0.004254   -0.001030
O    -2.113858   -1.335668    0.228074   -0.000049    0.000018   -0.000007
O     0.565913    2.419811   -0.573774    0.000285   -0.000814    0.000217
H     2.075025   -1.530775    0.326164   -0.560321    0.486430   -0.097885
H     0.100035   -2.536833    0.514848    0.002896   -0.012770    0.002116
H    -1.446364    0.886978   -0.820293   -0.004920    0.001801   -0.006411
H     2.166135    0.527500   -0.123034   -1.727330   -0.628239    0.168016
H    -1.243409    1.090921    0.790154   -0.003750    0.004199    0.007743
13
* Frequency(35) 3244.9494
C     1.704939    0.360431   -0.078016    0.152754    0.063734   -0.016527
C     1.433047   -0.986971    0.215883    0.047189   -0.053551    0.010978
N     0.168304   -1.530513    0.333767   -0.002871   -0.000031    0.000045
C    -1.013593   -0.875855    0.188153   -0.000314   -0.000340    0.000068
N    -0.832145    0.606394   -0.032496   -0.000519   -0.000455    0.000004
C     0.581973    1.267708   -0.274899   -0.003520    0.004254   -0.001030
O    -2.113860   -1.335667    0.228074   -0.000049    0.000018   -0.000007
O     0.565927    2.419773   -0.573764    0.000285   -0.000814    0.000217
H     2.049093   -1.508262    0.321633   -0.560321    0.486430   -0.097885
H     0.100169   -2.537424    0.514946    0.002896   -0.012770    0.002116
H    -1.446592    0.887062   -0.820589   -0.004920    0.001801   -0.006411
H     2.086191    0.498424   -0.115258   -1.727330   -0.628239    0.168016
H    -1.243583    1.091115    0.790512   -0.003750    0.004199    0.007743
13
* Frequency(35) 3244.9494
C     1.706393    0.361037   -0.078173    0.152754    0.063734   -0.016527
C     1.433496   -0.987481    0.215988    0.047189   -0.053551    0.010978
N     0.168277   -1.530513    0.333768   -0.002871   -0.000031    0.000045
C    -1.013596   -0.875858    0.188153   -0.000314   -0.000340    0.000068
N    -0.832150    0.606389   -0.032496   -0.000519   -0.000455    0.000004
C     0.581939    1.267748   -0.274909   -0.003520    0.004254   -0.001030
O    -2.113861   -1.335667    0.228074   -0.000049    0.000018   -0.000007
O     0.565929    2.419765   -0.573762    0.000285   -0.000814    0.000217
H     2.043761   -1.503634    0.320702   -0.560321    0.486430   -0.097885
H     0.100197   -2.537546    0.514966    0.002896   -0.012770    0.002116
H    -1.446639    0.887079   -0.820650   -0.004920    0.001801   -0.006411
H     2.069756    0.492447   -0.113660   -1.727330   -0.628239    0.168016
H    -1.243618    1.091155    0.790586   -0.003750    0.004199    0.007743
13
* Frequency(35) 3244.9494
C     1.702072    0.359234   -0.077706    0.152754    0.063734   -0.016527
C     1.432161   -0.985966    0.215677    0.047189   -0.053551    0.010978
N     0.168358   -1.530512    0.333766   -0.002871   -0.000031    0.000045
C    -1.013587   -0.875848    0.188151   -0.000314   -0.000340    0.000068
N    -0.832136    0.606402   -0.032496   -0.000519   -0.000455    0.000004
C     0.582039    1.267628   -0.274880   -0.003520    0.004254   -0.001030
O    -2.113859   -1.335668    0.228074   -0.000049    0.000018   -0.000007
O     0.565921    2.419788   -0.573768    0.000285   -0.000814    0.000217
H     2.059609   -1.517392    0.323471   -0.560321    0.486430   -0.097885
H     0.100115   -2.537184    0.514906    0.002896   -0.012770    0.002116
H    -1.446499    0.887028   -0.820469   -0.004920    0.001801   -0.006411
H     2.118612    0.510216   -0.118412   -1.727330   -0.628239    0.168016
H    -1.243512    1.091036    0.790367   -0.003750    0.004199    0.007743
13
* Frequency(35) 3244.9494
C     1.692446    0.355218   -0.076664    0.152754    0.063734   -0.016527
C     1.429188   -0.982592    0.214986    0.047189   -0.053551    0.010978
N     0.168539   -1.530510    0.333763   -0.002871   -0.000031    0.000045
C    -1.013567   -0.875827    0.188147   -0.000314   -0.000340    0.000068
N    -0.832103    0.606431   -0.032496   -0.000519   -0.000455    0.000004
C     0.582261    1.267360   -0.274815   -0.003520    0.004254   -0.001030
O    -2.113856   -1.335669    0.228074   -0.000049    0.000018   -0.000007
O     0.565903    2.419840   -0.573782    0.000285   -0.000814    0.000217
H     2.094919   -1.548045    0.329639   -0.560321    0.486430   -0.097885
H     0.099932   -2.536380    0.514773    0.002896   -0.012770    0.002116
H    -1.446189    0.886914   -0.820065   -0.004920    0.001801   -0.006411
H     2.227463    0.549806   -0.129000   -1.727330   -0.628239    0.168016
H    -1.243276    1.090772    0.789879   -0.003750    0.004199    0.007743
13
* Frequency(35) 3244.9494
C     1.678557    0.349423   -0.075162    0.152754    0.063734   -0.016527
C     1.424897   -0.977723    0.213987    0.047189   -0.053551    0.010978
N     0.168800   -1.530508    0.333759   -0.002871   -0.000031    0.000045
C    -1.013538   -0.875796    0.188141   -0.000314   -0.000340    0.000068
N    -0.832056    0.606472   -0.032496   -0.000519   -0.000455    0.000004
C     0.582581    1.266973   -0.274721   -0.003520    0.004254   -0.001030
O    -2.113852   -1.335671    0.228075   -0.000049    0.000018   -0.000007
O     0.565877    2.419914   -0.573802    0.000285   -0.000814    0.000217
H     2.145865   -1.592272    0.338539   -0.560321    0.486430   -0.097885
H     0.099669   -2.535219    0.514581    0.002896   -0.012770    0.002116
H    -1.445742    0.886751   -0.819482   -0.004920    0.001801   -0.006411
H     2.384515    0.606926   -0.144276   -1.727330   -0.628239    0.168016
H    -1.242935    1.090390    0.789175   -0.003750    0.004199    0.007743
13
* Frequency(35) 3244.9494
C     1.661911    0.342478   -0.073361    0.152754    0.063734   -0.016527
C     1.419755   -0.971887    0.212791    0.047189   -0.053551    0.010978
N     0.169113   -1.530504    0.333754   -0.002871   -0.000031    0.000045
C    -1.013504   -0.875759    0.188133   -0.000314   -0.000340    0.000068
N    -0.831999    0.606522   -0.032497   -0.000519   -0.000455    0.000004
C     0.582964    1.266510   -0.274609   -0.003520    0.004254   -0.001030
O    -2.113846   -1.335673    0.228076   -0.000049    0.000018   -0.000007
O     0.565846    2.420002   -0.573825    0.000285   -0.000814    0.000217
H     2.206925   -1.645280    0.349206   -0.560321    0.486430   -0.097885
H     0.099353   -2.533827    0.514350    0.002896   -0.012770    0.002116
H    -1.445206    0.886554   -0.818783   -0.004920    0.001801   -0.006411
H     2.572749    0.675388   -0.162585   -1.727330   -0.628239    0.168016
H    -1.242526    1.089932    0.788331   -0.003750    0.004199    0.007743
13
* Frequency(35) 3244.9494
C     1.644311    0.335135   -0.071457    0.152754    0.063734   -0.016527
C     1.414318   -0.965717    0.211526    0.047189   -0.053551    0.010978
N     0.169444   -1.530501    0.333749   -0.002871   -0.000031    0.000045
C    -1.013468   -0.875720    0.188126   -0.000314   -0.000340    0.000068
N    -0.831940    0.606575   -0.032497   -0.000519   -0.000455    0.000004
C     0.583370    1.266019   -0.274490   -0.003520    0.004254   -0.001030
O    -2.113841   -1.335675    0.228077   -0.000049    0.000018   -0.000007
O     0.565813    2.420096   -0.573850    0.000285   -0.000814    0.000217
H     2.271483   -1.701325    0.360484   -0.560321    0.486430   -0.097885
H     0.099020   -2.532356    0.514106    0.002896   -0.012770    0.002116
H    -1.444639    0.886347   -0.818045   -0.004920    0.001801   -0.006411
H     2.771765    0.747771   -0.181944   -1.727330   -0.628239    0.168016
H    -1.242094    1.089449    0.787439   -0.003750    0.004199    0.007743
13
* Frequency(35) 3244.9494
C     1.627665    0.328190   -0.069656    0.152754    0.063734   -0.016527
C     1.409176   -0.959881    0.210330    0.047189   -0.053551    0.010978
N     0.169757   -1.530497    0.333744   -0.002871   -0.000031    0.000045
C    -1.013434   -0.875683    0.188118   -0.000314   -0.000340    0.000068
N    -0.831883    0.606624   -0.032497   -0.000519   -0.000455    0.000004
C     0.583753    1.265556   -0.274378   -0.003520    0.004254   -0.001030
O    -2.113835   -1.335677    0.228077   -0.000049    0.000018   -0.000007
O     0.565782    2.420185   -0.573874    0.000285   -0.000814    0.000217
H     2.332543   -1.754333    0.371151   -0.560321    0.486430   -0.097885
H     0.098704   -2.530964    0.513876    0.002896   -0.012770    0.002116
H    -1.444103    0.886151   -0.817346   -0.004920    0.001801   -0.006411
H     2.959998    0.816232   -0.200253   -1.727330   -0.628239    0.168016
H    -1.241685    1.088991    0.786595   -0.003750    0.004199    0.007743
13
* Frequency(35) 3244.9494
C     1.613777    0.322395   -0.068153    0.152754    0.063734   -0.016527
C     1.404885   -0.955012    0.209332    0.047189   -0.053551    0.010978
N     0.170018   -1.530494    0.333740   -0.002871   -0.000031    0.000045
C    -1.013405   -0.875652    0.188112   -0.000314   -0.000340    0.000068
N    -0.831836    0.606666   -0.032498   -0.000519   -0.000455    0.000004
C     0.584074    1.265169   -0.274284   -0.003520    0.004254   -0.001030
O    -2.113831   -1.335678    0.228078   -0.000049    0.000018   -0.000007
O     0.565756    2.420259   -0.573894    0.000285   -0.000814    0.000217
H     2.383488   -1.798560    0.380050   -0.560321    0.486430   -0.097885
H     0.098441   -2.529803    0.513684    0.002896   -0.012770    0.002116
H    -1.443655    0.885987   -0.816763   -0.004920    0.001801   -0.006411
H     3.117050    0.873353   -0.215529   -1.727330   -0.628239    0.168016
H    -1.241345    1.088609    0.785891   -0.003750    0.004199    0.007743
13
* Frequency(35) 3244.9494
C     1.604150    0.318378   -0.067111    0.152754    0.063734   -0.016527
C     1.401911   -0.951638    0.208640    0.047189   -0.053551    0.010978
N     0.170199   -1.530492    0.333737   -0.002871   -0.000031    0.000045
C    -1.013386   -0.875630    0.188108   -0.000314   -0.000340    0.000068
N    -0.831803    0.606694   -0.032498   -0.000519   -0.000455    0.000004
C     0.584295    1.264901   -0.274219   -0.003520    0.004254   -0.001030
O    -2.113828   -1.335680    0.228079   -0.000049    0.000018   -0.000007
O     0.565738    2.420310   -0.573907    0.000285   -0.000814    0.000217
H     2.418798   -1.829213    0.386219   -0.560321    0.486430   -0.097885
H     0.098258   -2.528998    0.513550    0.002896   -0.012770    0.002116
H    -1.443345    0.885873   -0.816359   -0.004920    0.001801   -0.006411
H     3.225902    0.912943   -0.226117   -1.727330   -0.628239    0.168016
H    -1.241108    1.088345    0.785403   -0.003750    0.004199    0.007743
13
* Frequency(35) 3244.9494
C     1.599830    0.316576   -0.066644    0.152754    0.063734   -0.016527
C     1.400577   -0.950123    0.208330    0.047189   -0.053551    0.010978
N     0.170280   -1.530491    0.333736   -0.002871   -0.000031    0.000045
C    -1.013377   -0.875621    0.188106   -0.000314   -0.000340    0.000068
N    -0.831789    0.606707   -0.032498   -0.000519   -0.000455    0.000004
C     0.584395    1.264780   -0.274190   -0.003520    0.004254   -0.001030
O    -2.113826   -1.335680    0.228079   -0.000049    0.000018   -0.000007
O     0.565730    2.420333   -0.573913    0.000285   -0.000814    0.000217
H     2.434646   -1.842971    0.388987   -0.560321    0.486430   -0.097885
H     0.098176   -2.528637    0.513490    0.002896   -0.012770    0.002116
H    -1.443206    0.885822   -0.816178   -0.004920    0.001801   -0.006411
H     3.274757    0.930712   -0.230869   -1.727330   -0.628239    0.168016
H    -1.241002    1.088226    0.785184   -0.003750    0.004199    0.007743
13
* Frequency(35) 3244.9494
C     1.601283    0.317182   -0.066801    0.152754    0.063734   -0.016527
C     1.401026   -0.950632    0.208434    0.047189   -0.053551    0.010978
N     0.170252   -1.530492    0.333736   -0.002871   -0.000031    0.000045
C    -1.013380   -0.875624    0.188106   -0.000314   -0.000340    0.000068
N    -0.831794    0.606703   -0.032498   -0.000519   -0.000455    0.000004
C     0.584361    1.264821   -0.274200   -0.003520    0.004254   -0.001030
O    -2.113827   -1.335680    0.228079   -0.000049    0.000018   -0.000007
O     0.565733    2.420326   -0.573911    0.000285   -0.000814    0.000217
H     2.429315   -1.838343    0.388056   -0.560321    0.486430   -0.097885
H     0.098204   -2.528759    0.513511    0.002896   -0.012770    0.002116
H    -1.443253    0.885840   -0.816239   -0.004920    0.001801   -0.006411
H     3.258323    0.924735   -0.229271   -1.727330   -0.628239    0.168016
H    -1.241038    1.088266    0.785258   -0.003750    0.004199    0.007743
13
* Frequency(35) 3244.9494
C     1.608353    0.320132   -0.067566    0.152754    0.063734   -0.016527
C     1.403210   -0.953111    0.208942    0.047189   -0.053551    0.010978
N     0.170120   -1.530493    0.333739   -0.002871   -0.000031    0.000045
C    -1.013394   -0.875640    0.188110   -0.000314   -0.000340    0.000068
N    -0.831818    0.606682   -0.032498   -0.000519   -0.000455    0.000004
C     0.584198    1.265018   -0.274248   -0.003520    0.004254   -0.001030
O    -2.113829   -1.335679    0.228078   -0.000049    0.000018   -0.000007
O     0.565746    2.420288   -0.573901    0.000285   -0.000814    0.000217
H     2.403383   -1.815830    0.383526   -0.560321    0.486430   -0.097885
H     0.098338   -2.529350    0.513608    0.002896   -0.012770    0.002116
H    -1.443481    0.885923   -0.816535   -0.004920    0.001801   -0.006411
H     3.178379    0.895659   -0.221495   -1.727330   -0.628239    0.168016
H    -1.241211    1.088460    0.785616   -0.003750    0.004199    0.007743
13
* Frequency(35) 3244.9494
C     1.620273    0.325105   -0.068856    0.152754    0.063734   -0.016527
C     1.406892   -0.957290    0.209799    0.047189   -0.053551    0.010978
N     0.169896   -1.530496    0.333742   -0.002871   -0.000031    0.000045
C    -1.013419   -0.875666    0.188115   -0.000314   -0.000340    0.000068
N    -0.831858    0.606646   -0.032498   -0.000519   -0.000455    0.000004
C     0.583924    1.265350   -0.274328   -0.003520    0.004254   -0.001030
O    -2.113833   -1.335678    0.228078   -0.000049    0.000018   -0.000007
O     0.565769    2.420224   -0.573884    0.000285   -0.000814    0.000217
H     2.359659   -1.777872    0.375887   -0.560321    0.486430   -0.097885
H     0.098564   -2.530346    0.513774    0.002896   -0.012770    0.002116
H    -1.443865    0.886063   -0.817036   -0.004920    0.001801   -0.006411
H     3.043589    0.846635   -0.208384   -1.727330   -0.628239    0.168016
H    -1.241504    1.088788    0.786220   -0.003750    0.004199    0.007743
13
* Frequency(35) 3244.9494
C     1.635752    0.331563   -0.070530    0.152754    0.063734   -0.016527
C     1.411674   -0.962716    0.210911    0.047189   -0.053551    0.010978
N     0.169605   -1.530499    0.333747   -0.002871   -0.000031    0.000045
C    -1.013451   -0.875701    0.188122   -0.000314   -0.000340    0.000068
N    -0.831911    0.606600   -0.032497   -0.000519   -0.000455    0.000004
C     0.583567    1.265781   -0.274432   -0.003520    0.004254   -0.001030
O    -2.113838   -1.335676    0.228077   -0.000049    0.000018   -0.000007
O     0.565797    2.420142   -0.573862    0.000285   -0.000814    0.000217
H     2.302881   -1.728583    0.365969   -0.560321    0.486430   -0.097885
H     0.098857   -2.531640    0.513988    0.002896   -0.012770    0.002116
H    -1.444363    0.886246   -0.817685   -0.004920    0.001801   -0.006411
H     2.868559    0.782975   -0.191359   -1.727330   -0.628239    0.168016
H    -1.241884    1.089213    0.787005   -0.003750    0.004199    0.007743
13
* Frequency(35) 3244.9494
C     1.653111    0.338806   -0.072409    0.152754    0.063734   -0.016527
C     1.417036   -0.968802    0.212159    0.047189   -0.053551    0.010978
N     0.169278   -1.530502    0.333752   -0.002871   -0.000031    0.000045
C    -1.013486   -0.875739    0.188129   -0.000314   -0.000340    0.000068
N    -0.831970    0.606548   -0.032497   -0.000519   -0.000455    0.000004
C     0.583167    1.266264   -0.274550   -0.003520    0.004254   -0.001030
O    -2.113843   -1.335674    0.228076   -0.000049    0.000018   -0.000007
O     0.565830    2.420049   -0.573838    0.000285   -0.000814    0.000217
H     2.239204   -1.673303    0.354845   -0.560321    0.486430   -0.097885
H     0.099186   -2.533091    0.514228    0.002896   -0.012770    0.002116
H    -1.444922    0.886451   -0.818414   -0.004920    0.001801   -0.006411
H     2.672257    0.711579   -0.172265   -1.727330   -0.628239    0.168016
H    -1.242310    1.089691    0.787885   -0.003750    0.004199    0.007743
