13
* (null), Energy   -1000.0000000
C     1.653111    0.338806   -0.072409    0.134027   -0.112242    0.090011
C     1.417036   -0.968802    0.212159    0.194449   -0.223837   -0.076750
N     0.169278   -1.530502    0.333752    0.114001   -0.063601   -0.114996
C    -1.013486   -0.875739    0.188129    0.038862    0.114028    0.125264
N    -0.831970    0.606548   -0.032497   -0.483853   -0.180345    0.084191
C     0.583167    1.266264   -0.274550    0.203796    0.150333   -0.160648
O    -2.113843   -1.335674    0.228076   -0.010299    0.163792   -0.087840
O     0.565830    2.420049   -0.573838   -0.047182    0.148001   -0.012856
H     2.239204   -1.673303    0.354845    0.188790   -0.197418    0.175478
H     0.099186   -2.533091    0.514228   -0.037227    0.225350    1.421703
H    -1.444922    0.886451   -0.818414   -0.639969   -0.506194    0.096515
H     2.672257    0.711579   -0.172265    0.175912   -0.080286    0.521129
H    -1.242310    1.089691    0.787885   -0.441200   -0.145832    0.075084
13
* Frequency(15)  696.0197
C     1.668343    0.326051   -0.062179    0.134027   -0.112242    0.090011
C     1.439135   -0.994240    0.203437    0.194449   -0.223837   -0.076750
N     0.182234   -1.537730    0.320683    0.114001   -0.063601   -0.114996
C    -1.009070   -0.862781    0.202365    0.038862    0.114028    0.125264
N    -0.886957    0.586053   -0.022929   -0.483853   -0.180345    0.084191
C     0.606328    1.283349   -0.292806    0.203796    0.150333   -0.160648
O    -2.115014   -1.317060    0.218094   -0.010299    0.163792   -0.087840
O     0.560468    2.436869   -0.575299   -0.047182    0.148001   -0.012856
H     2.260659   -1.695738    0.374787    0.188790   -0.197418    0.175478
H     0.094956   -2.507482    0.675797   -0.037227    0.225350    1.421703
H    -1.517651    0.828924   -0.807446   -0.639969   -0.506194    0.096515
H     2.692248    0.702455   -0.113041    0.175912   -0.080286    0.521129
H    -1.292450    1.073118    0.796418   -0.441200   -0.145832    0.075084
13
* Frequency(15)  696.0197
C     1.681924    0.314677   -0.053058    0.134027   -0.112242    0.090011
C     1.458838   -1.016921    0.195660    0.194449   -0.223837   -0.076750
N     0.193786   -1.544175    0.309031    0.114001   -0.063601   -0.114996
C    -1.005132   -0.851226    0.215058    0.038862    0.114028    0.125264
N    -0.935986    0.567779   -0.014398   -0.483853   -0.180345    0.084191
C     0.626978    1.298582   -0.309085    0.203796    0.150333   -0.160648
O    -2.116057   -1.300463    0.209193   -0.010299    0.163792   -0.087840
O     0.555687    2.451866   -0.576601   -0.047182    0.148001   -0.012856
H     2.279789   -1.715742    0.392568    0.188790   -0.197418    0.175478
H     0.091184   -2.484647    0.819858   -0.037227    0.225350    1.421703
H    -1.582499    0.777632   -0.797666   -0.639969   -0.506194    0.096515
H     2.710073    0.694320   -0.060235    0.175912   -0.080286    0.521129
H    -1.337157    1.058340    0.804026   -0.441200   -0.145832    0.075084
13
* Frequency(15)  696.0197
C     1.692382    0.305918   -0.046035    0.134027   -0.112242    0.090011
C     1.474011   -1.034388    0.189670    0.194449   -0.223837   -0.076750
N     0.202681   -1.549138    0.300057    0.114001   -0.063601   -0.114996
C    -1.002099   -0.842328    0.224833    0.038862    0.114028    0.125264
N    -0.973742    0.553706   -0.007828   -0.483853   -0.180345    0.084191
C     0.642881    1.310313   -0.321621    0.203796    0.150333   -0.160648
O    -2.116861   -1.287681    0.202339   -0.010299    0.163792   -0.087840
O     0.552005    2.463415   -0.577605   -0.047182    0.148001   -0.012856
H     2.294521   -1.731148    0.406261    0.188790   -0.197418    0.175478
H     0.088279   -2.467062    0.930799   -0.037227    0.225350    1.421703
H    -1.632439    0.738132   -0.790134   -0.639969   -0.506194    0.096515
H     2.723800    0.688055   -0.019570    0.175912   -0.080286    0.521129
H    -1.371586    1.046961    0.809885   -0.441200   -0.145832    0.075084
13
* Frequency(15)  696.0197
C     1.698585    0.300724   -0.041869    0.134027   -0.112242    0.090011
C     1.483011   -1.044747    0.186118    0.194449   -0.223837   -0.076750
N     0.207958   -1.552081    0.294735    0.114001   -0.063601   -0.114996
C    -1.000301   -0.837051    0.230630    0.038862    0.114028    0.125264
N    -0.996136    0.545359   -0.003931   -0.483853   -0.180345    0.084191
C     0.652313    1.317271   -0.329056    0.203796    0.150333   -0.160648
O    -2.117338   -1.280101    0.198273   -0.010299    0.163792   -0.087840
O     0.549821    2.470264   -0.578200   -0.047182    0.148001   -0.012856
H     2.303259   -1.740284    0.414383    0.188790   -0.197418    0.175478
H     0.086556   -2.456632    0.996598   -0.037227    0.225350    1.421703
H    -1.662057    0.714704   -0.785668   -0.639969   -0.506194    0.096515
H     2.731942    0.684339    0.004549    0.175912   -0.080286    0.521129
H    -1.392005    1.040211    0.813360   -0.441200   -0.145832    0.075084
13
* Frequency(15)  696.0197
C     1.699860    0.299656   -0.041012    0.134027   -0.112242    0.090011
C     1.484861   -1.046877    0.185388    0.194449   -0.223837   -0.076750
N     0.209042   -1.552687    0.293641    0.114001   -0.063601   -0.114996
C    -0.999931   -0.835966    0.231822    0.038862    0.114028    0.125264
N    -1.000740    0.543643   -0.003130   -0.483853   -0.180345    0.084191
C     0.654252    1.318701   -0.330584    0.203796    0.150333   -0.160648
O    -2.117436   -1.278542    0.197437   -0.010299    0.163792   -0.087840
O     0.549373    2.471673   -0.578322   -0.047182    0.148001   -0.012856
H     2.305055   -1.742163    0.416052    0.188790   -0.197418    0.175478
H     0.086201   -2.454488    1.010125   -0.037227    0.225350    1.421703
H    -1.668146    0.709888   -0.784749   -0.639969   -0.506194    0.096515
H     2.733616    0.683575    0.009508    0.175912   -0.080286    0.521129
H    -1.396203    1.038824    0.814074   -0.441200   -0.145832    0.075084
13
* Frequency(15)  696.0197
C     1.696070    0.302830   -0.043558    0.134027   -0.112242    0.090011
C     1.479361   -1.040546    0.187559    0.194449   -0.223837   -0.076750
N     0.205818   -1.550888    0.296893    0.114001   -0.063601   -0.114996
C    -1.001030   -0.839191    0.228279    0.038862    0.114028    0.125264
N    -0.987054    0.548744   -0.005512   -0.483853   -0.180345    0.084191
C     0.648488    1.314449   -0.326041    0.203796    0.150333   -0.160648
O    -2.117144   -1.283175    0.199922   -0.010299    0.163792   -0.087840
O     0.550707    2.467487   -0.577958   -0.047182    0.148001   -0.012856
H     2.299715   -1.736579    0.411089    0.188790   -0.197418    0.175478
H     0.087254   -2.460862    0.969913   -0.037227    0.225350    1.421703
H    -1.650046    0.724205   -0.787479   -0.639969   -0.506194    0.096515
H     2.728640    0.685846   -0.005232    0.175912   -0.080286    0.521129
H    -1.383724    1.042949    0.811951   -0.441200   -0.145832    0.075084
13
* Frequency(15)  696.0197
C     1.687624    0.309904   -0.049230    0.134027   -0.112242    0.090011
C     1.467108   -1.026441    0.192395    0.194449   -0.223837   -0.076750
N     0.198634   -1.546880    0.304140    0.114001   -0.063601   -0.114996
C    -1.003479   -0.846377    0.220385    0.038862    0.114028    0.125264
N    -0.956563    0.560109   -0.010817   -0.483853   -0.180345    0.084191
C     0.635645    1.304976   -0.315917    0.203796    0.150333   -0.160648
O    -2.116495   -1.293497    0.205457   -0.010299    0.163792   -0.087840
O     0.553680    2.458160   -0.577148   -0.047182    0.148001   -0.012856
H     2.287818   -1.724138    0.400031    0.188790   -0.197418    0.175478
H     0.089600   -2.475063    0.880322   -0.037227    0.225350    1.421703
H    -1.609716    0.756104   -0.793561   -0.639969   -0.506194    0.096515
H     2.717555    0.690905   -0.038072    0.175912   -0.080286    0.521129
H    -1.355921    1.052138    0.807219   -0.441200   -0.145832    0.075084
13
* Frequency(15)  696.0197
C     1.675438    0.320109   -0.057414    0.134027   -0.112242    0.090011
C     1.449428   -1.006089    0.199374    0.194449   -0.223837   -0.076750
N     0.188269   -1.541097    0.314596    0.114001   -0.063601   -0.114996
C    -1.007013   -0.856744    0.208996    0.038862    0.114028    0.125264
N    -0.912571    0.576506   -0.018472   -0.483853   -0.180345    0.084191
C     0.617116    1.291307   -0.301311    0.203796    0.150333   -0.160648
O    -2.115559   -1.308389    0.213444   -0.010299    0.163792   -0.087840
O     0.557970    2.444703   -0.575979   -0.047182    0.148001   -0.012856
H     2.270653   -1.706189    0.384076    0.188790   -0.197418    0.175478
H     0.092985   -2.495552    0.751058   -0.037227    0.225350    1.421703
H    -1.551529    0.802128   -0.802336   -0.639969   -0.506194    0.096515
H     2.701560    0.698205   -0.085454    0.175912   -0.080286    0.521129
H    -1.315806    1.065398    0.800392   -0.441200   -0.145832    0.075084
13
* Frequency(15)  696.0197
C     1.660832    0.332340   -0.067223    0.134027   -0.112242    0.090011
C     1.428238   -0.981697    0.207737    0.194449   -0.223837   -0.076750
N     0.175846   -1.534166    0.327127    0.114001   -0.063601   -0.114996
C    -1.011247   -0.869170    0.195346    0.038862    0.114028    0.125264
N    -0.859843    0.596159   -0.027647   -0.483853   -0.180345    0.084191
C     0.594907    1.274925   -0.283804    0.203796    0.150333   -0.160648
O    -2.114437   -1.326238    0.223016   -0.010299    0.163792   -0.087840
O     0.563112    2.428575   -0.574578   -0.047182    0.148001   -0.012856
H     2.250080   -1.684675    0.364954    0.188790   -0.197418    0.175478
H     0.097042   -2.520109    0.596130   -0.037227    0.225350    1.421703
H    -1.481790    0.857290   -0.812854   -0.639969   -0.506194    0.096515
H     2.682391    0.706954   -0.142243    0.175912   -0.080286    0.521129
H    -1.267727    1.081289    0.792210   -0.441200   -0.145832    0.075084
13
* Frequency(15)  696.0197
C     1.645390    0.345272   -0.077594    0.134027   -0.112242    0.090011
C     1.405835   -0.955907    0.216580    0.194449   -0.223837   -0.076750
N     0.162711   -1.526838    0.340377    0.114001   -0.063601   -0.114996
C    -1.015725   -0.882308    0.180913    0.038862    0.114028    0.125264
N    -0.804096    0.616938   -0.037347   -0.483853   -0.180345    0.084191
C     0.571427    1.257604   -0.265295    0.203796    0.150333   -0.160648
O    -2.113250   -1.345109    0.233137   -0.010299    0.163792   -0.087840
O     0.568548    2.411523   -0.573097   -0.047182    0.148001   -0.012856
H     2.228328   -1.661930    0.344736    0.188790   -0.197418    0.175478
H     0.101331   -2.546073    0.432327   -0.037227    0.225350    1.421703
H    -1.408055    0.915611   -0.823974   -0.639969   -0.506194    0.096515
H     2.662123    0.716204   -0.202286    0.175912   -0.080286    0.521129
H    -1.216893    1.098092    0.783559   -0.441200   -0.145832    0.075084
13
* Frequency(15)  696.0197
C     1.630785    0.357504   -0.087403    0.134027   -0.112242    0.090011
C     1.384645   -0.931515    0.224944    0.194449   -0.223837   -0.076750
N     0.150288   -1.519908    0.352908    0.114001   -0.063601   -0.114996
C    -1.019960   -0.894734    0.167263    0.038862    0.114028    0.125264
N    -0.751369    0.636591   -0.046522   -0.483853   -0.180345    0.084191
C     0.549218    1.241222   -0.247789    0.203796    0.150333   -0.160648
O    -2.112128   -1.362958    0.242709   -0.010299    0.163792   -0.087840
O     0.573690    2.395395   -0.571696   -0.047182    0.148001   -0.012856
H     2.207755   -1.640416    0.325613    0.188790   -0.197418    0.175478
H     0.105388   -2.570631    0.277399   -0.037227    0.225350    1.421703
H    -1.338315    0.970773   -0.834492   -0.639969   -0.506194    0.096515
H     2.642953    0.724954   -0.259075    0.175912   -0.080286    0.521129
H    -1.168814    1.113983    0.775377   -0.441200   -0.145832    0.075084
13
* Frequency(15)  696.0197
C     1.618599    0.367709   -0.095587    0.134027   -0.112242    0.090011
C     1.366965   -0.911163    0.231922    0.194449   -0.223837   -0.076750
N     0.139923   -1.514125    0.363364    0.114001   -0.063601   -0.114996
C    -1.023493   -0.905102    0.155874    0.038862    0.114028    0.125264
N    -0.707376    0.652988   -0.054176   -0.483853   -0.180345    0.084191
C     0.530689    1.227553   -0.233182    0.203796    0.150333   -0.160648
O    -2.111191   -1.377851    0.250695   -0.010299    0.163792   -0.087840
O     0.577979    2.381939   -0.570527   -0.047182    0.148001   -0.012856
H     2.190590   -1.622467    0.309659    0.188790   -0.197418    0.175478
H     0.108773   -2.591120    0.148135   -0.037227    0.225350    1.421703
H    -1.280128    1.016797   -0.843267   -0.639969   -0.506194    0.096515
H     2.626959    0.732253   -0.306457    0.175912   -0.080286    0.521129
H    -1.128700    1.127243    0.768550   -0.441200   -0.145832    0.075084
13
* Frequency(15)  696.0197
C     1.610153    0.374782   -0.101259    0.134027   -0.112242    0.090011
C     1.354712   -0.897058    0.236759    0.194449   -0.223837   -0.076750
N     0.132739   -1.510117    0.370610    0.114001   -0.063601   -0.114996
C    -1.025942   -0.912288    0.147980    0.038862    0.114028    0.125264
N    -0.676885    0.664353   -0.059482   -0.483853   -0.180345    0.084191
C     0.517846    1.218080   -0.223058    0.203796    0.150333   -0.160648
O    -2.110542   -1.388172    0.256231   -0.010299    0.163792   -0.087840
O     0.580953    2.372612   -0.569717   -0.047182    0.148001   -0.012856
H     2.178693   -1.610026    0.298600    0.188790   -0.197418    0.175478
H     0.111119   -2.605321    0.058543   -0.037227    0.225350    1.421703
H    -1.239799    1.048696   -0.849349   -0.639969   -0.506194    0.096515
H     2.615873    0.737313   -0.339297    0.175912   -0.080286    0.521129
H    -1.100896    1.136433    0.763819   -0.441200   -0.145832    0.075084
13
* Frequency(15)  696.0197
C     1.606362    0.377957   -0.103805    0.134027   -0.112242    0.090011
C     1.349212   -0.890727    0.238929    0.194449   -0.223837   -0.076750
N     0.129514   -1.508318    0.373863    0.114001   -0.063601   -0.114996
C    -1.027041   -0.915513    0.144437    0.038862    0.114028    0.125264
N    -0.663199    0.669454   -0.061863   -0.483853   -0.180345    0.084191
C     0.512082    1.213828   -0.218515    0.203796    0.150333   -0.160648
O    -2.110251   -1.392805    0.258715   -0.010299    0.163792   -0.087840
O     0.582287    2.368426   -0.569353   -0.047182    0.148001   -0.012856
H     2.173353   -1.604442    0.293637    0.188790   -0.197418    0.175478
H     0.112171   -2.611695    0.018332   -0.037227    0.225350    1.421703
H    -1.221698    1.063013   -0.852079   -0.639969   -0.506194    0.096515
H     2.610898    0.739584   -0.354037    0.175912   -0.080286    0.521129
H    -1.088418    1.140557    0.761695   -0.441200   -0.145832    0.075084
13
* Frequency(15)  696.0197
C     1.607637    0.376889   -0.102948    0.134027   -0.112242    0.090011
C     1.351062   -0.892856    0.238199    0.194449   -0.223837   -0.076750
N     0.130599   -1.508923    0.372769    0.114001   -0.063601   -0.114996
C    -1.026672   -0.914428    0.145629    0.038862    0.114028    0.125264
N    -0.667803    0.667738   -0.061062   -0.483853   -0.180345    0.084191
C     0.514021    1.215258   -0.220043    0.203796    0.150333   -0.160648
O    -2.110349   -1.391247    0.257879   -0.010299    0.163792   -0.087840
O     0.581838    2.369834   -0.569476   -0.047182    0.148001   -0.012856
H     2.175149   -1.606321    0.295307    0.188790   -0.197418    0.175478
H     0.111817   -2.609551    0.031859   -0.037227    0.225350    1.421703
H    -1.227787    1.058197   -0.851160   -0.639969   -0.506194    0.096515
H     2.612572    0.738820   -0.349078    0.175912   -0.080286    0.521129
H    -1.092615    1.139170    0.762410   -0.441200   -0.145832    0.075084
13
* Frequency(15)  696.0197
C     1.613840    0.371694   -0.098783    0.134027   -0.112242    0.090011
C     1.360061   -0.903216    0.234647    0.194449   -0.223837   -0.076750
N     0.135875   -1.511867    0.367447    0.114001   -0.063601   -0.114996
C    -1.024873   -0.909151    0.151426    0.038862    0.114028    0.125264
N    -0.690197    0.659391   -0.057166   -0.483853   -0.180345    0.084191
C     0.523453    1.222216   -0.227478    0.203796    0.150333   -0.160648
O    -2.110826   -1.383666    0.253814   -0.010299    0.163792   -0.087840
O     0.579655    2.376684   -0.570071   -0.047182    0.148001   -0.012856
H     2.183887   -1.615457    0.303428    0.188790   -0.197418    0.175478
H     0.110094   -2.599121    0.097658   -0.037227    0.225350    1.421703
H    -1.257406    1.034770   -0.846694   -0.639969   -0.506194    0.096515
H     2.620713    0.735104   -0.324960    0.175912   -0.080286    0.521129
H    -1.113035    1.132420    0.765885   -0.441200   -0.145832    0.075084
13
* Frequency(15)  696.0197
C     1.624299    0.362936   -0.091759    0.134027   -0.112242    0.090011
C     1.375235   -0.920683    0.228658    0.194449   -0.223837   -0.076750
N     0.144771   -1.516830    0.358473    0.114001   -0.063601   -0.114996
C    -1.021841   -0.900253    0.161201    0.038862    0.114028    0.125264
N    -0.727953    0.645318   -0.050596   -0.483853   -0.180345    0.084191
C     0.539356    1.233947   -0.240014    0.203796    0.150333   -0.160648
O    -2.111629   -1.370885    0.246960   -0.010299    0.163792   -0.087840
O     0.575973    2.388233   -0.571074   -0.047182    0.148001   -0.012856
H     2.198619   -1.630863    0.317121    0.188790   -0.197418    0.175478
H     0.107189   -2.581536    0.208599   -0.037227    0.225350    1.421703
H    -1.307345    0.995269   -0.839162   -0.639969   -0.506194    0.096515
H     2.634440    0.728839   -0.284294    0.175912   -0.080286    0.521129
H    -1.147463    1.121041    0.771744   -0.441200   -0.145832    0.075084
13
* Frequency(15)  696.0197
C     1.637880    0.351562   -0.082638    0.134027   -0.112242    0.090011
C     1.394938   -0.943364    0.220881    0.194449   -0.223837   -0.076750
N     0.156323   -1.523275    0.346820    0.114001   -0.063601   -0.114996
C    -1.017903   -0.888698    0.173894    0.038862    0.114028    0.125264
N    -0.776982    0.627044   -0.042065   -0.483853   -0.180345    0.084191
C     0.560007    1.249180   -0.256293    0.203796    0.150333   -0.160648
O    -2.112673   -1.354288    0.238059   -0.010299    0.163792   -0.087840
O     0.571192    2.403230   -0.572377   -0.047182    0.148001   -0.012856
H     2.217749   -1.650867    0.334903    0.188790   -0.197418    0.175478
H     0.103417   -2.558701    0.352659   -0.037227    0.225350    1.421703
H    -1.372193    0.943977   -0.829382   -0.639969   -0.506194    0.096515
H     2.652265    0.720703   -0.231488    0.175912   -0.080286    0.521129
H    -1.192170    1.106264    0.779352   -0.441200   -0.145832    0.075084
13
* Frequency(15)  696.0197
C     1.653111    0.338806   -0.072409    0.134027   -0.112242    0.090011
C     1.417036   -0.968802    0.212159    0.194449   -0.223837   -0.076750
N     0.169278   -1.530502    0.333752    0.114001   -0.063601   -0.114996
C    -1.013486   -0.875739    0.188129    0.038862    0.114028    0.125264
N    -0.831970    0.606548   -0.032497   -0.483853   -0.180345    0.084191
C     0.583167    1.266264   -0.274550    0.203796    0.150333   -0.160648
O    -2.113843   -1.335674    0.228076   -0.010299    0.163792   -0.087840
O     0.565830    2.420049   -0.573838   -0.047182    0.148001   -0.012856
H     2.239204   -1.673303    0.354845    0.188790   -0.197418    0.175478
H     0.099186   -2.533091    0.514228   -0.037227    0.225350    1.421703
H    -1.444922    0.886451   -0.818414   -0.639969   -0.506194    0.096515
H     2.672257    0.711579   -0.172265    0.175912   -0.080286    0.521129
H    -1.242310    1.089691    0.787885   -0.441200   -0.145832    0.075084
