13
* (null), Energy   -1000.0000000
C     1.653111    0.338806   -0.072409   -0.001271   -0.035271   -0.200727
C     1.417036   -0.968802    0.212159   -0.039712   -0.015134   -0.182819
N     0.169278   -1.530502    0.333752   -0.018150    0.033188    0.147399
C    -1.013486   -0.875739    0.188129    0.020519   -0.011019   -0.146489
N    -0.831970    0.606548   -0.032497   -0.000058   -0.017390    0.085125
C     0.583167    1.266264   -0.274550    0.011823    0.020600    0.091028
O    -2.113843   -1.335674    0.228076    0.023194    0.012769    0.035988
O     0.565830    2.420049   -0.573838    0.005805   -0.019834   -0.039309
H     2.239204   -1.673303    0.354845   -0.033921    0.165945    0.663180
H     0.099186   -2.533091    0.514228   -0.023546   -0.038206   -0.250441
H    -1.444922    0.886451   -0.818414    0.223227   -0.013953   -0.085433
H     2.672257    0.711579   -0.172265    0.036179    0.379058    1.736464
H    -1.242310    1.089691    0.787885   -0.306235   -0.113781   -0.011116
13
* Frequency(18)  806.3315
C     1.652967    0.334798   -0.095220   -0.001271   -0.035271   -0.200727
C     1.412523   -0.970522    0.191382   -0.039712   -0.015134   -0.182819
N     0.167216   -1.526731    0.350503   -0.018150    0.033188    0.147399
C    -1.011154   -0.876992    0.171482    0.020519   -0.011019   -0.146489
N    -0.831976    0.604572   -0.022823   -0.000058   -0.017390    0.085125
C     0.584511    1.268606   -0.264205    0.011823    0.020600    0.091028
O    -2.111208   -1.334222    0.232166    0.023194    0.012769    0.035988
O     0.566490    2.417795   -0.578305    0.005805   -0.019834   -0.039309
H     2.235349   -1.654444    0.430212   -0.033921    0.165945    0.663180
H     0.096511   -2.537433    0.485767   -0.023546   -0.038206   -0.250441
H    -1.419554    0.884865   -0.828123    0.223227   -0.013953   -0.085433
H     2.676368    0.754657    0.025076    0.036179    0.379058    1.736464
H    -1.277112    1.076760    0.786622   -0.306235   -0.113781   -0.011116
13
* Frequency(18)  806.3315
C     1.652838    0.331224   -0.115560   -0.001271   -0.035271   -0.200727
C     1.408499   -0.972055    0.172857   -0.039712   -0.015134   -0.182819
N     0.165376   -1.523368    0.365439   -0.018150    0.033188    0.147399
C    -1.009075   -0.878108    0.156638    0.020519   -0.011019   -0.146489
N    -0.831982    0.602810   -0.014197   -0.000058   -0.017390    0.085125
C     0.585709    1.270693   -0.254981    0.011823    0.020600    0.091028
O    -2.108857   -1.332929    0.235813    0.023194    0.012769    0.035988
O     0.567078    2.415786   -0.582288    0.005805   -0.019834   -0.039309
H     2.231912   -1.637629    0.497412   -0.033921    0.165945    0.663180
H     0.094125   -2.541305    0.460390   -0.023546   -0.038206   -0.250441
H    -1.396934    0.883451   -0.836780    0.223227   -0.013953   -0.085433
H     2.680034    0.793067    0.201031    0.036179    0.379058    1.736464
H    -1.308143    1.065230    0.785495   -0.306235   -0.113781   -0.011116
13
* Frequency(18)  806.3315
C     1.652739    0.328472   -0.131223   -0.001271   -0.035271   -0.200727
C     1.405400   -0.973236    0.158591   -0.039712   -0.015134   -0.182819
N     0.163960   -1.520778    0.376941   -0.018150    0.033188    0.147399
C    -1.007474   -0.878968    0.145207    0.020519   -0.011019   -0.146489
N    -0.831987    0.601453   -0.007554   -0.000058   -0.017390    0.085125
C     0.586632    1.272300   -0.247878    0.011823    0.020600    0.091028
O    -2.107047   -1.331932    0.238621    0.023194    0.012769    0.035988
O     0.567531    2.414238   -0.585356    0.005805   -0.019834   -0.039309
H     2.229265   -1.624679    0.549162   -0.033921    0.165945    0.663180
H     0.092287   -2.544286    0.440847   -0.023546   -0.038206   -0.250441
H    -1.379515    0.882362   -0.843447    0.223227   -0.013953   -0.085433
H     2.682858    0.822647    0.336534    0.036179    0.379058    1.736464
H    -1.332040    1.056352    0.784628   -0.306235   -0.113781   -0.011116
13
* Frequency(18)  806.3315
C     1.652680    0.326839   -0.140513   -0.001271   -0.035271   -0.200727
C     1.403562   -0.973937    0.150130   -0.039712   -0.015134   -0.182819
N     0.163120   -1.519242    0.383763   -0.018150    0.033188    0.147399
C    -1.006524   -0.879478    0.138427    0.020519   -0.011019   -0.146489
N    -0.831989    0.600648   -0.003615   -0.000058   -0.017390    0.085125
C     0.587179    1.273254   -0.243665    0.011823    0.020600    0.091028
O    -2.105974   -1.331341    0.240287    0.023194    0.012769    0.035988
O     0.567800    2.413320   -0.587175    0.005805   -0.019834   -0.039309
H     2.227695   -1.616999    0.579855   -0.033921    0.165945    0.663180
H     0.091198   -2.546054    0.429256   -0.023546   -0.038206   -0.250441
H    -1.369184    0.881717   -0.847401    0.223227   -0.013953   -0.085433
H     2.684532    0.840190    0.416901    0.036179    0.379058    1.736464
H    -1.346213    1.051086    0.784113   -0.306235   -0.113781   -0.011116
13
* Frequency(18)  806.3315
C     1.652668    0.326504   -0.142423   -0.001271   -0.035271   -0.200727
C     1.403185   -0.974081    0.148391   -0.039712   -0.015134   -0.182819
N     0.162947   -1.518926    0.385165   -0.018150    0.033188    0.147399
C    -1.006329   -0.879583    0.137033    0.020519   -0.011019   -0.146489
N    -0.831990    0.600483   -0.002805   -0.000058   -0.017390    0.085125
C     0.587291    1.273450   -0.242799    0.011823    0.020600    0.091028
O    -2.105753   -1.331220    0.240629    0.023194    0.012769    0.035988
O     0.567855    2.413131   -0.587549    0.005805   -0.019834   -0.039309
H     2.227372   -1.615420    0.586165   -0.033921    0.165945    0.663180
H     0.090974   -2.546418    0.426873   -0.023546   -0.038206   -0.250441
H    -1.367060    0.881584   -0.848213    0.223227   -0.013953   -0.085433
H     2.684876    0.843797    0.433422    0.036179    0.379058    1.736464
H    -1.349126    1.050003    0.784007   -0.306235   -0.113781   -0.011116
13
* Frequency(18)  806.3315
C     1.652704    0.327501   -0.136746   -0.001271   -0.035271   -0.200727
C     1.404308   -0.973653    0.153562   -0.039712   -0.015134   -0.182819
N     0.163461   -1.519865    0.380996   -0.018150    0.033188    0.147399
C    -1.006909   -0.879271    0.141177    0.020519   -0.011019   -0.146489
N    -0.831988    0.600974   -0.005212   -0.000058   -0.017390    0.085125
C     0.586957    1.272867   -0.245373    0.011823    0.020600    0.091028
O    -2.106409   -1.331581    0.239611    0.023194    0.012769    0.035988
O     0.567691    2.413692   -0.586437    0.005805   -0.019834   -0.039309
H     2.228332   -1.620114    0.567408   -0.033921    0.165945    0.663180
H     0.091640   -2.545337    0.433957   -0.023546   -0.038206   -0.250441
H    -1.373373    0.881978   -0.845797    0.223227   -0.013953   -0.085433
H     2.683853    0.833075    0.384308    0.036179    0.379058    1.736464
H    -1.340465    1.053221    0.784322   -0.306235   -0.113781   -0.011116
13
* Frequency(18)  806.3315
C     1.652784    0.329724   -0.124096   -0.001271   -0.035271   -0.200727
C     1.406810   -0.972699    0.165082   -0.039712   -0.015134   -0.182819
N     0.164605   -1.521956    0.371708   -0.018150    0.033188    0.147399
C    -1.008202   -0.878577    0.150408    0.020519   -0.011019   -0.146489
N    -0.831985    0.602070   -0.010577   -0.000058   -0.017390    0.085125
C     0.586212    1.271569   -0.251110    0.011823    0.020600    0.091028
O    -2.107871   -1.332385    0.237343    0.023194    0.012769    0.035988
O     0.567325    2.414942   -0.583960    0.005805   -0.019834   -0.039309
H     2.230469   -1.630571    0.525616   -0.033921    0.165945    0.663180
H     0.093123   -2.542929    0.449739   -0.023546   -0.038206   -0.250441
H    -1.387441    0.882858   -0.840413    0.223227   -0.013953   -0.085433
H     2.681573    0.809188    0.274881    0.036179    0.379058    1.736464
H    -1.321167    1.060391    0.785022   -0.306235   -0.113781   -0.011116
13
* Frequency(18)  806.3315
C     1.652900    0.332931   -0.105846   -0.001271   -0.035271   -0.200727
C     1.410421   -0.971323    0.181705   -0.039712   -0.015134   -0.182819
N     0.166255   -1.524974    0.358306   -0.018150    0.033188    0.147399
C    -1.010068   -0.877575    0.163727    0.020519   -0.011019   -0.146489
N    -0.831979    0.603651   -0.018316   -0.000058   -0.017390    0.085125
C     0.585137    1.269696   -0.259386    0.011823    0.020600    0.091028
O    -2.109980   -1.333546    0.234071    0.023194    0.012769    0.035988
O     0.566797    2.416745   -0.580386    0.005805   -0.019834   -0.039309
H     2.233553   -1.645659    0.465318   -0.033921    0.165945    0.663180
H     0.095264   -2.539456    0.472509   -0.023546   -0.038206   -0.250441
H    -1.407737    0.884126   -0.832646    0.223227   -0.013953   -0.085433
H     2.678284    0.774723    0.116998    0.036179    0.379058    1.736464
H    -1.293323    1.070737    0.786033   -0.306235   -0.113781   -0.011116
13
* Frequency(18)  806.3315
C     1.653038    0.336774   -0.083972   -0.001271   -0.035271   -0.200727
C     1.414749   -0.969674    0.201627   -0.039712   -0.015134   -0.182819
N     0.168233   -1.528590    0.342243   -0.018150    0.033188    0.147399
C    -1.012304   -0.876374    0.179690    0.020519   -0.011019   -0.146489
N    -0.831973    0.605546   -0.027593   -0.000058   -0.017390    0.085125
C     0.583848    1.267451   -0.269306    0.011823    0.020600    0.091028
O    -2.112507   -1.334938    0.230149    0.023194    0.012769    0.035988
O     0.566164    2.418907   -0.576102    0.005805   -0.019834   -0.039309
H     2.237250   -1.663743    0.393049   -0.033921    0.165945    0.663180
H     0.097830   -2.535292    0.499801   -0.023546   -0.038206   -0.250441
H    -1.432063    0.885647   -0.823336    0.223227   -0.013953   -0.085433
H     2.674341    0.733416   -0.072230    0.036179    0.379058    1.736464
H    -1.259952    1.083136    0.787244   -0.306235   -0.113781   -0.011116
13
* Frequency(18)  806.3315
C     1.653185    0.340838   -0.060845   -0.001271   -0.035271   -0.200727
C     1.419324   -0.967930    0.222691   -0.039712   -0.015134   -0.182819
N     0.170324   -1.532414    0.325260   -0.018150    0.033188    0.147399
C    -1.014668   -0.875105    0.196568    0.020519   -0.011019   -0.146489
N    -0.831966    0.607550   -0.037401   -0.000058   -0.017390    0.085125
C     0.582486    1.265078   -0.279793    0.011823    0.020600    0.091028
O    -2.115180   -1.336409    0.226003    0.023194    0.012769    0.035988
O     0.565495    2.421192   -0.571573    0.005805   -0.019834   -0.039309
H     2.241158   -1.682862    0.316640   -0.033921    0.165945    0.663180
H     0.100543   -2.530890    0.528656   -0.023546   -0.038206   -0.250441
H    -1.457782    0.887254   -0.813492    0.223227   -0.013953   -0.085433
H     2.670173    0.689742   -0.272299    0.036179    0.379058    1.736464
H    -1.224669    1.096245    0.788525   -0.306235   -0.113781   -0.011116
13
* Frequency(18)  806.3315
C     1.653323    0.344682   -0.038971   -0.001271   -0.035271   -0.200727
C     1.423652   -0.966281    0.242613   -0.039712   -0.015134   -0.182819
N     0.172302   -1.536031    0.309198   -0.018150    0.033188    0.147399
C    -1.016904   -0.873904    0.212532    0.020519   -0.011019   -0.146489
N    -0.831960    0.609445   -0.046677   -0.000058   -0.017390    0.085125
C     0.581198    1.262833   -0.289713    0.011823    0.020600    0.091028
O    -2.117707   -1.337801    0.222081    0.023194    0.012769    0.035988
O     0.564863    2.423353   -0.567289    0.005805   -0.019834   -0.039309
H     2.244854   -1.700946    0.244371   -0.033921    0.165945    0.663180
H     0.103109   -2.526727    0.555947   -0.023546   -0.038206   -0.250441
H    -1.482108    0.888775   -0.804182    0.223227   -0.013953   -0.085433
H     2.666230    0.648435   -0.461528    0.036179    0.379058    1.736464
H    -1.191297    1.108644    0.789737   -0.306235   -0.113781   -0.011116
13
* Frequency(18)  806.3315
C     1.653439    0.347889   -0.020721   -0.001271   -0.035271   -0.200727
C     1.427262   -0.964905    0.259235   -0.039712   -0.015134   -0.182819
N     0.173952   -1.539048    0.295796   -0.018150    0.033188    0.147399
C    -1.018770   -0.872902    0.225851    0.020519   -0.011019   -0.146489
N    -0.831955    0.611026   -0.054417   -0.000058   -0.017390    0.085125
C     0.580123    1.260960   -0.297989    0.011823    0.020600    0.091028
O    -2.119816   -1.338962    0.218809    0.023194    0.012769    0.035988
O     0.564335    2.425157   -0.563715    0.005805   -0.019834   -0.039309
H     2.247939   -1.716034    0.184074   -0.033921    0.165945    0.663180
H     0.105250   -2.523253    0.578718   -0.023546   -0.038206   -0.250441
H    -1.502404    0.890043   -0.796415    0.223227   -0.013953   -0.085433
H     2.662940    0.613970   -0.619410    0.036179    0.379058    1.736464
H    -1.163454    1.118990    0.790747   -0.306235   -0.113781   -0.011116
13
* Frequency(18)  806.3315
C     1.653519    0.350112   -0.008071   -0.001271   -0.035271   -0.200727
C     1.429765   -0.963951    0.270756   -0.039712   -0.015134   -0.182819
N     0.175096   -1.541140    0.286507   -0.018150    0.033188    0.147399
C    -1.020063   -0.872207    0.235082    0.020519   -0.011019   -0.146489
N    -0.831951    0.612122   -0.059781   -0.000058   -0.017390    0.085125
C     0.579377    1.259662   -0.303726    0.011823    0.020600    0.091028
O    -2.121277   -1.339766    0.216541    0.023194    0.012769    0.035988
O     0.563969    2.426406   -0.561238    0.005805   -0.019834   -0.039309
H     2.250076   -1.726491    0.142282   -0.033921    0.165945    0.663180
H     0.106733   -2.520846    0.594500   -0.023546   -0.038206   -0.250441
H    -1.516471    0.890923   -0.791031    0.223227   -0.013953   -0.085433
H     2.660661    0.590083   -0.728837    0.036179    0.379058    1.736464
H    -1.144155    1.126160    0.791448   -0.306235   -0.113781   -0.011116
13
* Frequency(18)  806.3315
C     1.653555    0.351109   -0.002394   -0.001271   -0.035271   -0.200727
C     1.430888   -0.963523    0.275927   -0.039712   -0.015134   -0.182819
N     0.175609   -1.542079    0.282338   -0.018150    0.033188    0.147399
C    -1.020643   -0.871896    0.239226    0.020519   -0.011019   -0.146489
N    -0.831949    0.612614   -0.062189   -0.000058   -0.017390    0.085125
C     0.579043    1.259079   -0.306300    0.011823    0.020600    0.091028
O    -2.121933   -1.340128    0.215523    0.023194    0.012769    0.035988
O     0.563805    2.426967   -0.560126    0.005805   -0.019834   -0.039309
H     2.251036   -1.731185    0.123524   -0.033921    0.165945    0.663180
H     0.107399   -2.519765    0.601583   -0.023546   -0.038206   -0.250441
H    -1.522785    0.891317   -0.788615    0.223227   -0.013953   -0.085433
H     2.659637    0.579362   -0.777951    0.036179    0.379058    1.736464
H    -1.135494    1.129378    0.791762   -0.306235   -0.113781   -0.011116
13
* Frequency(18)  806.3315
C     1.653542    0.350774   -0.004304   -0.001271   -0.035271   -0.200727
C     1.430510   -0.963667    0.274187   -0.039712   -0.015134   -0.182819
N     0.175437   -1.541763    0.283741   -0.018150    0.033188    0.147399
C    -1.020448   -0.872001    0.237832    0.020519   -0.011019   -0.146489
N    -0.831950    0.612449   -0.061379   -0.000058   -0.017390    0.085125
C     0.579156    1.259275   -0.305434    0.011823    0.020600    0.091028
O    -2.121713   -1.340006    0.215866    0.023194    0.012769    0.035988
O     0.563860    2.426779   -0.560500    0.005805   -0.019834   -0.039309
H     2.250713   -1.729606    0.129834   -0.033921    0.165945    0.663180
H     0.107175   -2.520129    0.599201   -0.023546   -0.038206   -0.250441
H    -1.520661    0.891185   -0.789427    0.223227   -0.013953   -0.085433
H     2.659981    0.582968   -0.761430    0.036179    0.379058    1.736464
H    -1.138408    1.128295    0.791657   -0.306235   -0.113781   -0.011116
13
* Frequency(18)  806.3315
C     1.653484    0.349141   -0.013594   -0.001271   -0.035271   -0.200727
C     1.428672   -0.964367    0.265726   -0.039712   -0.015134   -0.182819
N     0.174597   -1.540227    0.290563   -0.018150    0.033188    0.147399
C    -1.019499   -0.872511    0.231052    0.020519   -0.011019   -0.146489
N    -0.831952    0.611644   -0.057439   -0.000058   -0.017390    0.085125
C     0.579703    1.260229   -0.301221    0.011823    0.020600    0.091028
O    -2.120639   -1.339415    0.217531    0.023194    0.012769    0.035988
O     0.564129    2.425861   -0.562320    0.005805   -0.019834   -0.039309
H     2.249143   -1.721926    0.160527   -0.033921    0.165945    0.663180
H     0.106086   -2.521897    0.587610   -0.023546   -0.038206   -0.250441
H    -1.510330    0.890539   -0.793381    0.223227   -0.013953   -0.085433
H     2.661656    0.600512   -0.681063    0.036179    0.379058    1.736464
H    -1.152581    1.123029    0.791142   -0.306235   -0.113781   -0.011116
13
* Frequency(18)  806.3315
C     1.653384    0.346389   -0.029257   -0.001271   -0.035271   -0.200727
C     1.425574   -0.965548    0.251460   -0.039712   -0.015134   -0.182819
N     0.173180   -1.537637    0.302065   -0.018150    0.033188    0.147399
C    -1.017897   -0.873370    0.219621    0.020519   -0.011019   -0.146489
N    -0.831957    0.610287   -0.050797   -0.000058   -0.017390    0.085125
C     0.580625    1.261836   -0.294118    0.011823    0.020600    0.091028
O    -2.118829   -1.338419    0.220340    0.023194    0.012769    0.035988
O     0.564582    2.424313   -0.565387    0.005805   -0.019834   -0.039309
H     2.246496   -1.708976    0.212278   -0.033921    0.165945    0.663180
H     0.104248   -2.524878    0.568067   -0.023546   -0.038206   -0.250441
H    -1.492910    0.889450   -0.800048    0.223227   -0.013953   -0.085433
H     2.664479    0.630091   -0.545560    0.036179    0.379058    1.736464
H    -1.176477    1.114151    0.790275   -0.306235   -0.113781   -0.011116
13
* Frequency(18)  806.3315
C     1.653256    0.342815   -0.049597   -0.001271   -0.035271   -0.200727
C     1.421550   -0.967082    0.232935   -0.039712   -0.015134   -0.182819
N     0.171341   -1.534274    0.317001   -0.018150    0.033188    0.147399
C    -1.015818   -0.874487    0.204777    0.020519   -0.011019   -0.146489
N    -0.831963    0.608525   -0.042171   -0.000058   -0.017390    0.085125
C     0.581823    1.263923   -0.284894    0.011823    0.020600    0.091028
O    -2.116479   -1.337125    0.223986    0.023194    0.012769    0.035988
O     0.565170    2.422303   -0.569370    0.005805   -0.019834   -0.039309
H     2.243059   -1.692161    0.279478   -0.033921    0.165945    0.663180
H     0.101862   -2.528750    0.542690   -0.023546   -0.038206   -0.250441
H    -1.470291    0.888036   -0.808705    0.223227   -0.013953   -0.085433
H     2.668145    0.668501   -0.369605    0.036179    0.379058    1.736464
H    -1.207508    1.102621    0.789148   -0.306235   -0.113781   -0.011116
13
* Frequency(18)  806.3315
C     1.653111    0.338806   -0.072409   -0.001271   -0.035271   -0.200727
C     1.417036   -0.968802    0.212159   -0.039712   -0.015134   -0.182819
N     0.169278   -1.530502    0.333752   -0.018150    0.033188    0.147399
C    -1.013486   -0.875739    0.188129    0.020519   -0.011019   -0.146489
N    -0.831970    0.606548   -0.032497   -0.000058   -0.017390    0.085125
C     0.583167    1.266264   -0.274550    0.011823    0.020600    0.091028
O    -2.113843   -1.335674    0.228076    0.023194    0.012769    0.035988
O     0.565830    2.420049   -0.573838    0.005805   -0.019834   -0.039309
H     2.239204   -1.673303    0.354845   -0.033921    0.165945    0.663180
H     0.099186   -2.533091    0.514228   -0.023546   -0.038206   -0.250441
H    -1.444922    0.886451   -0.818414    0.223227   -0.013953   -0.085433
H     2.672257    0.711579   -0.172265    0.036179    0.379058    1.736464
H    -1.242310    1.089691    0.787885   -0.306235   -0.113781   -0.011116
