13
* (null), Energy   -1000.0000000
C     1.653111    0.338806   -0.072409   -0.095826    0.006848    0.000921
C     1.417036   -0.968802    0.212159    0.238889    0.073261   -0.019308
N     0.169278   -1.530502    0.333752   -0.358504   -0.027104    0.003846
C    -1.013486   -0.875739    0.188129    0.000196   -0.037010    0.003416
N    -0.831970    0.606548   -0.032497    0.038037   -0.074757    0.000904
C     0.583167    1.266264   -0.274550    0.069580    0.037855   -0.013265
O    -2.113843   -1.335674    0.228076    0.112873    0.031440   -0.001697
O     0.565830    2.420049   -0.573838   -0.009373   -0.041467    0.011459
H     2.239204   -1.673303    0.354845    0.023998   -0.196472    0.039509
H     0.099186   -2.533091    0.514228    1.288192   -0.125016    0.035254
H    -1.444922    0.886451   -0.818414   -0.442308    0.664773    0.604234
H     2.672257    0.711579   -0.172265   -0.009250   -0.244316    0.053658
H    -1.242310    1.089691    0.787885   -0.586342    0.511001   -0.617145
13
* Frequency(30) 1522.6848
C     1.642221    0.339585   -0.072304   -0.095826    0.006848    0.000921
C     1.444185   -0.960476    0.209964    0.238889    0.073261   -0.019308
N     0.128536   -1.533583    0.334189   -0.358504   -0.027104    0.003846
C    -1.013464   -0.879945    0.188518    0.000196   -0.037010    0.003416
N    -0.827647    0.598053   -0.032394    0.038037   -0.074757    0.000904
C     0.591075    1.270567   -0.276057    0.069580    0.037855   -0.013265
O    -2.101016   -1.332101    0.227883    0.112873    0.031440   -0.001697
O     0.564765    2.415337   -0.572535   -0.009373   -0.041467    0.011459
H     2.241931   -1.695630    0.359335    0.023998   -0.196472    0.039509
H     0.245583   -2.547299    0.518235    1.288192   -0.125016    0.035254
H    -1.495188    0.961999   -0.749746   -0.442308    0.664773    0.604234
H     2.671206    0.683814   -0.166167   -0.009250   -0.244316    0.053658
H    -1.308945    1.147763    0.717749   -0.586342    0.511001   -0.617145
13
* Frequency(30) 1522.6848
C     1.632511    0.340279   -0.072211   -0.095826    0.006848    0.000921
C     1.468391   -0.953053    0.208008    0.238889    0.073261   -0.019308
N     0.092209   -1.536329    0.334579   -0.358504   -0.027104    0.003846
C    -1.013444   -0.883696    0.188864    0.000196   -0.037010    0.003416
N    -0.823792    0.590478   -0.032303    0.038037   -0.074757    0.000904
C     0.598125    1.274402   -0.277401    0.069580    0.037855   -0.013265
O    -2.089579   -1.328915    0.227712    0.112873    0.031440   -0.001697
O     0.563815    2.411135   -0.571374   -0.009373   -0.041467    0.011459
H     2.244363   -1.715539    0.363338    0.023998   -0.196472    0.039509
H     0.376115   -2.559967    0.521807    1.288192   -0.125016    0.035254
H    -1.540007    1.029360   -0.688519   -0.442308    0.664773    0.604234
H     2.670268    0.659058   -0.160730   -0.009250   -0.244316    0.053658
H    -1.368359    1.199543    0.655214   -0.586342    0.511001   -0.617145
13
* Frequency(30) 1522.6848
C     1.625033    0.340813   -0.072139   -0.095826    0.006848    0.000921
C     1.487033   -0.947336    0.206501    0.238889    0.073261   -0.019308
N     0.064234   -1.538444    0.334879   -0.358504   -0.027104    0.003846
C    -1.013429   -0.886584    0.189130    0.000196   -0.037010    0.003416
N    -0.820824    0.584644   -0.032232    0.038037   -0.074757    0.000904
C     0.603555    1.277356   -0.278436    0.069580    0.037855   -0.013265
O    -2.080771   -1.326462    0.227579    0.112873    0.031440   -0.001697
O     0.563084    2.407899   -0.570480   -0.009373   -0.041467    0.011459
H     2.246236   -1.730870    0.366421    0.023998   -0.196472    0.039509
H     0.476637   -2.569722    0.524558    1.288192   -0.125016    0.035254
H    -1.574522    1.081235   -0.641368   -0.442308    0.664773    0.604234
H     2.669547    0.639993   -0.156542   -0.009250   -0.244316    0.053658
H    -1.414113    1.239418    0.607056   -0.586342    0.511001   -0.617145
13
* Frequency(30) 1522.6848
C     1.620598    0.341130   -0.072096   -0.095826    0.006848    0.000921
C     1.498089   -0.943945    0.205608    0.238889    0.073261   -0.019308
N     0.047641   -1.539699    0.335057   -0.358504   -0.027104    0.003846
C    -1.013420   -0.888297    0.189288    0.000196   -0.037010    0.003416
N    -0.819064    0.581184   -0.032190    0.038037   -0.074757    0.000904
C     0.606775    1.279108   -0.279050    0.069580    0.037855   -0.013265
O    -2.075547   -1.325006    0.227501    0.112873    0.031440   -0.001697
O     0.562650    2.405980   -0.569950   -0.009373   -0.041467    0.011459
H     2.247346   -1.739963    0.368250    0.023998   -0.196472    0.039509
H     0.536257   -2.575508    0.526190    1.288192   -0.125016    0.035254
H    -1.594993    1.112001   -0.613403   -0.442308    0.664773    0.604234
H     2.669118    0.628685   -0.154059   -0.009250   -0.244316    0.053658
H    -1.441250    1.263068    0.578494   -0.586342    0.511001   -0.617145
13
* Frequency(30) 1522.6848
C     1.619687    0.341195   -0.072087   -0.095826    0.006848    0.000921
C     1.500362   -0.943248    0.205424    0.238889    0.073261   -0.019308
N     0.044230   -1.539956    0.335093   -0.358504   -0.027104    0.003846
C    -1.013418   -0.888649    0.189321    0.000196   -0.037010    0.003416
N    -0.818702    0.580473   -0.032182    0.038037   -0.074757    0.000904
C     0.607437    1.279469   -0.279177    0.069580    0.037855   -0.013265
O    -2.074473   -1.324707    0.227484    0.112873    0.031440   -0.001697
O     0.562561    2.405585   -0.569841   -0.009373   -0.041467    0.011459
H     2.247575   -1.741833    0.368626    0.023998   -0.196472    0.039509
H     0.548514   -2.576697    0.526525    1.288192   -0.125016    0.035254
H    -1.599202    1.118326   -0.607654   -0.442308    0.664773    0.604234
H     2.669030    0.626361   -0.153549   -0.009250   -0.244316    0.053658
H    -1.446829    1.267930    0.572622   -0.586342    0.511001   -0.617145
13
* Frequency(30) 1522.6848
C     1.622397    0.341001   -0.072113   -0.095826    0.006848    0.000921
C     1.493605   -0.945320    0.205970    0.238889    0.073261   -0.019308
N     0.054370   -1.539190    0.334985   -0.358504   -0.027104    0.003846
C    -1.013423   -0.887602    0.189224    0.000196   -0.037010    0.003416
N    -0.819778    0.582587   -0.032207    0.038037   -0.074757    0.000904
C     0.605469    1.278398   -0.278801    0.069580    0.037855   -0.013265
O    -2.077665   -1.325597    0.227532    0.112873    0.031440   -0.001697
O     0.562826    2.406758   -0.570165   -0.009373   -0.041467    0.011459
H     2.246896   -1.736276    0.367508    0.023998   -0.196472    0.039509
H     0.512079   -2.573162    0.525528    1.288192   -0.125016    0.035254
H    -1.586691    1.099524   -0.624745   -0.442308    0.664773    0.604234
H     2.669292    0.633271   -0.155066   -0.009250   -0.244316    0.053658
H    -1.430245    1.253477    0.590077   -0.586342    0.511001   -0.617145
13
* Frequency(30) 1522.6848
C     1.628436    0.340570   -0.072171   -0.095826    0.006848    0.000921
C     1.478551   -0.949937    0.207187    0.238889    0.073261   -0.019308
N     0.076962   -1.537482    0.334742   -0.358504   -0.027104    0.003846
C    -1.013436   -0.885270    0.189009    0.000196   -0.037010    0.003416
N    -0.822175    0.587298   -0.032264    0.038037   -0.074757    0.000904
C     0.601084    1.276012   -0.277965    0.069580    0.037855   -0.013265
O    -2.084778   -1.327578    0.227639    0.112873    0.031440   -0.001697
O     0.563416    2.409371   -0.570887   -0.009373   -0.041467    0.011459
H     2.245384   -1.723895    0.365019    0.023998   -0.196472    0.039509
H     0.430900   -2.565283    0.523306    1.288192   -0.125016    0.035254
H    -1.558818    1.057632   -0.662822   -0.442308    0.664773    0.604234
H     2.669875    0.648667   -0.158448   -0.009250   -0.244316    0.053658
H    -1.393295    1.221275    0.628968   -0.586342    0.511001   -0.617145
13
* Frequency(30) 1522.6848
C     1.637148    0.339947   -0.072255   -0.095826    0.006848    0.000921
C     1.456831   -0.956598    0.208942    0.238889    0.073261   -0.019308
N     0.109558   -1.535017    0.334392   -0.358504   -0.027104    0.003846
C    -1.013454   -0.881905    0.188698    0.000196   -0.037010    0.003416
N    -0.825633    0.594095   -0.032346    0.038037   -0.074757    0.000904
C     0.594758    1.272570   -0.276759    0.069580    0.037855   -0.013265
O    -2.095041   -1.330436    0.227794    0.112873    0.031440   -0.001697
O     0.564269    2.413142   -0.571929   -0.009373   -0.041467    0.011459
H     2.243202   -1.706031    0.361426    0.023998   -0.196472    0.039509
H     0.313776   -2.553917    0.520101    1.288192   -0.125016    0.035254
H    -1.518603    0.997190   -0.717760   -0.442308    0.664773    0.604234
H     2.670716    0.670881   -0.163326   -0.009250   -0.244316    0.053658
H    -1.339984    1.174814    0.685080   -0.586342    0.511001   -0.617145
13
* Frequency(30) 1522.6848
C     1.647591    0.339201   -0.072356   -0.095826    0.006848    0.000921
C     1.430798   -0.964581    0.211046    0.238889    0.073261   -0.019308
N     0.148626   -1.532064    0.333973   -0.358504   -0.027104    0.003846
C    -1.013475   -0.877871    0.188326    0.000196   -0.037010    0.003416
N    -0.829778    0.602242   -0.032445    0.038037   -0.074757    0.000904
C     0.587175    1.268445   -0.275314    0.069580    0.037855   -0.013265
O    -2.107341   -1.333862    0.227979    0.112873    0.031440   -0.001697
O     0.565290    2.417660   -0.573178   -0.009373   -0.041467    0.011459
H     2.240586   -1.684621    0.357121    0.023998   -0.196472    0.039509
H     0.173397   -2.540293    0.516259    1.288192   -0.125016    0.035254
H    -1.470403    0.924747   -0.783605   -0.442308    0.664773    0.604234
H     2.671724    0.697505   -0.169173   -0.009250   -0.244316    0.053658
H    -1.276088    1.119128    0.752332   -0.586342    0.511001   -0.617145
13
* Frequency(30) 1522.6848
C     1.658632    0.338412   -0.072462   -0.095826    0.006848    0.000921
C     1.403274   -0.973022    0.213271    0.238889    0.073261   -0.019308
N     0.189931   -1.528941    0.333530   -0.358504   -0.027104    0.003846
C    -1.013498   -0.873607    0.187933    0.000196   -0.037010    0.003416
N    -0.834161    0.610855   -0.032549    0.038037   -0.074757    0.000904
C     0.579159    1.264084   -0.273785    0.069580    0.037855   -0.013265
O    -2.120346   -1.337485    0.228174    0.112873    0.031440   -0.001697
O     0.566370    2.422438   -0.574498   -0.009373   -0.041467    0.011459
H     2.237821   -1.661984    0.352569    0.023998   -0.196472    0.039509
H     0.024976   -2.525890    0.512197    1.288192   -0.125016    0.035254
H    -1.419442    0.848154   -0.853223   -0.442308    0.664773    0.604234
H     2.672790    0.725654   -0.175356   -0.009250   -0.244316    0.053658
H    -1.208532    1.060253    0.823437   -0.586342    0.511001   -0.617145
13
* Frequency(30) 1522.6848
C     1.669074    0.337666   -0.072562   -0.095826    0.006848    0.000921
C     1.377242   -0.981006    0.215375    0.238889    0.073261   -0.019308
N     0.228999   -1.525987    0.333111   -0.358504   -0.027104    0.003846
C    -1.013519   -0.869574    0.187560    0.000196   -0.037010    0.003416
N    -0.838306    0.619001   -0.032647    0.038037   -0.074757    0.000904
C     0.571576    1.259958   -0.272340    0.069580    0.037855   -0.013265
O    -2.132646   -1.340911    0.228359    0.112873    0.031440   -0.001697
O     0.567391    2.426957   -0.575747   -0.009373   -0.041467    0.011459
H     2.235206   -1.640574    0.348263    0.023998   -0.196472    0.039509
H    -0.115403   -2.512266    0.508356    1.288192   -0.125016    0.035254
H    -1.371242    0.775712   -0.919068   -0.442308    0.664773    0.604234
H     2.673798    0.752278   -0.181203   -0.009250   -0.244316    0.053658
H    -1.144636    1.004567    0.890690   -0.586342    0.511001   -0.617145
13
* Frequency(30) 1522.6848
C     1.677787    0.337043   -0.072646   -0.095826    0.006848    0.000921
C     1.355522   -0.987667    0.217131    0.238889    0.073261   -0.019308
N     0.261594   -1.523523    0.332761   -0.358504   -0.027104    0.003846
C    -1.013537   -0.866209    0.187250    0.000196   -0.037010    0.003416
N    -0.841764    0.625798   -0.032730    0.038037   -0.074757    0.000904
C     0.565250    1.256517   -0.271134    0.069580    0.037855   -0.013265
O    -2.142908   -1.343769    0.228513    0.112873    0.031440   -0.001697
O     0.568243    2.430727   -0.576788   -0.009373   -0.041467    0.011459
H     2.233024   -1.622710    0.344671    0.023998   -0.196472    0.039509
H    -0.232527   -2.500899    0.505150    1.288192   -0.125016    0.035254
H    -1.331026    0.715269   -0.974006   -0.442308    0.664773    0.604234
H     2.674639    0.774491   -0.186082   -0.009250   -0.244316    0.053658
H    -1.091325    0.958106    0.946802   -0.586342    0.511001   -0.617145
13
* Frequency(30) 1522.6848
C     1.683826    0.336611   -0.072704   -0.095826    0.006848    0.000921
C     1.340468   -0.992284    0.218348    0.238889    0.073261   -0.019308
N     0.284186   -1.521815    0.332519   -0.358504   -0.027104    0.003846
C    -1.013549   -0.863877    0.187035    0.000196   -0.037010    0.003416
N    -0.844161    0.630509   -0.032786    0.038037   -0.074757    0.000904
C     0.560865    1.254131   -0.270298    0.069580    0.037855   -0.013265
O    -2.150021   -1.345751    0.228620    0.112873    0.031440   -0.001697
O     0.568834    2.433340   -0.577511   -0.009373   -0.041467    0.011459
H     2.231512   -1.610329    0.342181    0.023998   -0.196472    0.039509
H    -0.313706   -2.493021    0.502929    1.288192   -0.125016    0.035254
H    -1.303153    0.673377   -1.012083   -0.442308    0.664773    0.604234
H     2.675221    0.789888   -0.189463   -0.009250   -0.244316    0.053658
H    -1.054375    0.925904    0.985693   -0.586342    0.511001   -0.617145
13
* Frequency(30) 1522.6848
C     1.686536    0.336418   -0.072730   -0.095826    0.006848    0.000921
C     1.333711   -0.994356    0.218894    0.238889    0.073261   -0.019308
N     0.294326   -1.521048    0.332410   -0.358504   -0.027104    0.003846
C    -1.013555   -0.862830    0.186938    0.000196   -0.037010    0.003416
N    -0.845237    0.632624   -0.032812    0.038037   -0.074757    0.000904
C     0.558897    1.253060   -0.269923    0.069580    0.037855   -0.013265
O    -2.153214   -1.346640    0.228668    0.112873    0.031440   -0.001697
O     0.569099    2.434513   -0.577835   -0.009373   -0.041467    0.011459
H     2.230833   -1.604772    0.341064    0.023998   -0.196472    0.039509
H    -0.350141   -2.489485    0.501932    1.288192   -0.125016    0.035254
H    -1.290643    0.654575   -1.029174   -0.442308    0.664773    0.604234
H     2.675483    0.796798   -0.190981   -0.009250   -0.244316    0.053658
H    -1.037791    0.911451    1.003148   -0.586342    0.511001   -0.617145
13
* Frequency(30) 1522.6848
C     1.685624    0.336483   -0.072721   -0.095826    0.006848    0.000921
C     1.335984   -0.993659    0.218710    0.238889    0.073261   -0.019308
N     0.290915   -1.521306    0.332447   -0.358504   -0.027104    0.003846
C    -1.013553   -0.863182    0.186970    0.000196   -0.037010    0.003416
N    -0.844875    0.631912   -0.032803    0.038037   -0.074757    0.000904
C     0.559559    1.253420   -0.270049    0.069580    0.037855   -0.013265
O    -2.152140   -1.346341    0.228652    0.112873    0.031440   -0.001697
O     0.569010    2.434119   -0.577726   -0.009373   -0.041467    0.011459
H     2.231062   -1.606642    0.341440    0.023998   -0.196472    0.039509
H    -0.337884   -2.490675    0.502267    1.288192   -0.125016    0.035254
H    -1.294851    0.660900   -1.023425   -0.442308    0.664773    0.604234
H     2.675395    0.794473   -0.190470   -0.009250   -0.244316    0.053658
H    -1.043370    0.916313    0.997276   -0.586342    0.511001   -0.617145
13
* Frequency(30) 1522.6848
C     1.681189    0.336800   -0.072678   -0.095826    0.006848    0.000921
C     1.347040   -0.990268    0.217816    0.238889    0.073261   -0.019308
N     0.274323   -1.522561    0.332625   -0.358504   -0.027104    0.003846
C    -1.013544   -0.864895    0.187129    0.000196   -0.037010    0.003416
N    -0.843115    0.628453   -0.032762    0.038037   -0.074757    0.000904
C     0.562780    1.255173   -0.270663    0.069580    0.037855   -0.013265
O    -2.146916   -1.344886    0.228573    0.112873    0.031440   -0.001697
O     0.568576    2.432199   -0.577195   -0.009373   -0.041467    0.011459
H     2.232172   -1.615735    0.343268    0.023998   -0.196472    0.039509
H    -0.278264   -2.496461    0.503899    1.288192   -0.125016    0.035254
H    -1.315322    0.691667   -0.995460   -0.442308    0.664773    0.604234
H     2.674967    0.783166   -0.187987   -0.009250   -0.244316    0.053658
H    -1.070507    0.939963    0.968713   -0.586342    0.511001   -0.617145
13
* Frequency(30) 1522.6848
C     1.673711    0.337334   -0.072607   -0.095826    0.006848    0.000921
C     1.365681   -0.984551    0.216310    0.238889    0.073261   -0.019308
N     0.246348   -1.524676    0.332925   -0.358504   -0.027104    0.003846
C    -1.013528   -0.867783    0.187395    0.000196   -0.037010    0.003416
N    -0.840147    0.622619   -0.032691    0.038037   -0.074757    0.000904
C     0.568209    1.258127   -0.271698    0.069580    0.037855   -0.013265
O    -2.138108   -1.342432    0.228441    0.112873    0.031440   -0.001697
O     0.567845    2.428964   -0.576301   -0.009373   -0.041467    0.011459
H     2.234045   -1.631066    0.346351    0.023998   -0.196472    0.039509
H    -0.177742   -2.506216    0.506650    1.288192   -0.125016    0.035254
H    -1.349837    0.743541   -0.948309   -0.442308    0.664773    0.604234
H     2.674245    0.764101   -0.183800   -0.009250   -0.244316    0.053658
H    -1.116262    0.979838    0.920555   -0.586342    0.511001   -0.617145
13
* Frequency(30) 1522.6848
C     1.664001    0.338028   -0.072513   -0.095826    0.006848    0.000921
C     1.389888   -0.977128    0.214353    0.238889    0.073261   -0.019308
N     0.210020   -1.527422    0.333315   -0.358504   -0.027104    0.003846
C    -1.013509   -0.871533    0.187741    0.000196   -0.037010    0.003416
N    -0.836292    0.615044   -0.032600    0.038037   -0.074757    0.000904
C     0.575260    1.261962   -0.273042    0.069580    0.037855   -0.013265
O    -2.126671   -1.339247    0.228269    0.112873    0.031440   -0.001697
O     0.566895    2.424762   -0.575140   -0.009373   -0.041467    0.011459
H     2.236477   -1.650975    0.350355    0.023998   -0.196472    0.039509
H    -0.047210   -2.518884    0.510222    1.288192   -0.125016    0.035254
H    -1.394656    0.810903   -0.887082   -0.442308    0.664773    0.604234
H     2.673308    0.739345   -0.178362   -0.009250   -0.244316    0.053658
H    -1.175675    1.031618    0.858020   -0.586342    0.511001   -0.617145
13
* Frequency(30) 1522.6848
C     1.653111    0.338806   -0.072409   -0.095826    0.006848    0.000921
C     1.417036   -0.968802    0.212159    0.238889    0.073261   -0.019308
N     0.169278   -1.530502    0.333752   -0.358504   -0.027104    0.003846
C    -1.013486   -0.875739    0.188129    0.000196   -0.037010    0.003416
N    -0.831970    0.606548   -0.032497    0.038037   -0.074757    0.000904
C     0.583167    1.266264   -0.274550    0.069580    0.037855   -0.013265
O    -2.113843   -1.335674    0.228076    0.112873    0.031440   -0.001697
O     0.565830    2.420049   -0.573838   -0.009373   -0.041467    0.011459
H     2.239204   -1.673303    0.354845    0.023998   -0.196472    0.039509
H     0.099186   -2.533091    0.514228    1.288192   -0.125016    0.035254
H    -1.444922    0.886451   -0.818414   -0.442308    0.664773    0.604234
H     2.672257    0.711579   -0.172265   -0.009250   -0.244316    0.053658
H    -1.242310    1.089691    0.787885   -0.586342    0.511001   -0.617145
