13
* (null), Energy   -1000.0000000
C     1.653111    0.338806   -0.072409    0.002792    0.000307   -0.000099
C     1.417036   -0.968802    0.212159   -0.000364    0.000158   -0.000197
N     0.169278   -1.530502    0.333752    0.001031    0.000256   -0.000057
C    -1.013486   -0.875739    0.188129    0.002225    0.004333   -0.000608
N    -0.831970    0.606548   -0.032497   -0.089017    0.075840    0.035459
C     0.583167    1.266264   -0.274550   -0.004278   -0.004758    0.001354
O    -2.113843   -1.335674    0.228076   -0.001624   -0.001410    0.000170
O     0.565830    2.420049   -0.573838    0.000501    0.002043   -0.000385
H     2.239204   -1.673303    0.354845    0.000763   -0.000654   -0.000178
H     0.099186   -2.533091    0.514228    0.001153   -0.028278    0.005414
H    -1.444922    0.886451   -0.818414    0.613256   -0.272331    0.852578
H     2.672257    0.711579   -0.172265   -0.009201   -0.006614    0.001891
H    -1.242310    1.089691    0.787885    0.630021   -0.760072   -1.353604
13
* Frequency(36) 3355.5964
C     1.653429    0.338841   -0.072420    0.002792    0.000307   -0.000099
C     1.416995   -0.968784    0.212136   -0.000364    0.000158   -0.000197
N     0.169396   -1.530473    0.333745    0.001031    0.000256   -0.000057
C    -1.013233   -0.875247    0.188060    0.002225    0.004333   -0.000608
N    -0.842086    0.615167   -0.028467   -0.089017    0.075840    0.035459
C     0.582681    1.265724   -0.274396   -0.004278   -0.004758    0.001354
O    -2.114028   -1.335834    0.228096   -0.001624   -0.001410    0.000170
O     0.565887    2.420281   -0.573881    0.000501    0.002043   -0.000385
H     2.239291   -1.673377    0.354824    0.000763   -0.000654   -0.000178
H     0.099317   -2.536305    0.514844    0.001153   -0.028278    0.005414
H    -1.375229    0.855502   -0.721523    0.613256   -0.272331    0.852578
H     2.671211    0.710828   -0.172050   -0.009201   -0.006614    0.001891
H    -1.170712    1.003312    0.634055    0.630021   -0.760072   -1.353604
13
* Frequency(36) 3355.5964
C     1.653712    0.338872   -0.072430    0.002792    0.000307   -0.000099
C     1.416958   -0.968768    0.212116   -0.000364    0.000158   -0.000197
N     0.169500   -1.530447    0.333740    0.001031    0.000256   -0.000057
C    -1.013008   -0.874808    0.187999    0.002225    0.004333   -0.000608
N    -0.851106    0.622852   -0.024874   -0.089017    0.075840    0.035459
C     0.582247    1.265242   -0.274258   -0.004278   -0.004758    0.001354
O    -2.114192   -1.335977    0.228113   -0.001624   -0.001410    0.000170
O     0.565938    2.420488   -0.573920    0.000501    0.002043   -0.000385
H     2.239368   -1.673443    0.354806    0.000763   -0.000654   -0.000178
H     0.099434   -2.539170    0.515392    0.001153   -0.028278    0.005414
H    -1.313088    0.827906   -0.635131    0.613256   -0.272331    0.852578
H     2.670279    0.710157   -0.171858   -0.009201   -0.006614    0.001891
H    -1.106872    0.926294    0.496894    0.630021   -0.760072   -1.353604
13
* Frequency(36) 3355.5964
C     1.653929    0.338896   -0.072438    0.002792    0.000307   -0.000099
C     1.416930   -0.968756    0.212101   -0.000364    0.000158   -0.000197
N     0.169581   -1.530427    0.333735    0.001031    0.000256   -0.000057
C    -1.012834   -0.874470    0.187951    0.002225    0.004333   -0.000608
N    -0.858052    0.628770   -0.022107   -0.089017    0.075840    0.035459
C     0.581914    1.264870   -0.274153   -0.004278   -0.004758    0.001354
O    -2.114319   -1.336087    0.228126   -0.001624   -0.001410    0.000170
O     0.565977    2.420648   -0.573950    0.000501    0.002043   -0.000385
H     2.239428   -1.673494    0.354792    0.000763   -0.000654   -0.000178
H     0.099524   -2.541377    0.515815    0.001153   -0.028278    0.005414
H    -1.265233    0.806655   -0.568602    0.613256   -0.272331    0.852578
H     2.669561    0.709641   -0.171710   -0.009201   -0.006614    0.001891
H    -1.057709    0.866983    0.391268    0.630021   -0.760072   -1.353604
13
* Frequency(36) 3355.5964
C     1.654059    0.338911   -0.072442    0.002792    0.000307   -0.000099
C     1.416913   -0.968748    0.212092   -0.000364    0.000158   -0.000197
N     0.169628   -1.530415    0.333732    0.001031    0.000256   -0.000057
C    -1.012731   -0.874269    0.187923    0.002225    0.004333   -0.000608
N    -0.862172    0.632280   -0.020466   -0.089017    0.075840    0.035459
C     0.581716    1.264650   -0.274090   -0.004278   -0.004758    0.001354
O    -2.114394   -1.336152    0.228134   -0.001624   -0.001410    0.000170
O     0.566000    2.420742   -0.573968    0.000501    0.002043   -0.000385
H     2.239463   -1.673524    0.354784    0.000763   -0.000654   -0.000178
H     0.099578   -2.542686    0.516065    0.001153   -0.028278    0.005414
H    -1.236851    0.794051   -0.529143    0.613256   -0.272331    0.852578
H     2.669135    0.709335   -0.171623   -0.009201   -0.006614    0.001891
H    -1.028550    0.831806    0.328620    0.630021   -0.760072   -1.353604
13
* Frequency(36) 3355.5964
C     1.654085    0.338913   -0.072443    0.002792    0.000307   -0.000099
C     1.416909   -0.968747    0.212090   -0.000364    0.000158   -0.000197
N     0.169638   -1.530413    0.333732    0.001031    0.000256   -0.000057
C    -1.012710   -0.874228    0.187917    0.002225    0.004333   -0.000608
N    -0.863019    0.633002   -0.020129   -0.089017    0.075840    0.035459
C     0.581675    1.264605   -0.274077   -0.004278   -0.004758    0.001354
O    -2.114410   -1.336165    0.228136   -0.001624   -0.001410    0.000170
O     0.566005    2.420762   -0.573972    0.000501    0.002043   -0.000385
H     2.239470   -1.673531    0.354782    0.000763   -0.000654   -0.000178
H     0.099589   -2.542955    0.516117    0.001153   -0.028278    0.005414
H    -1.231016    0.791460   -0.521031    0.613256   -0.272331    0.852578
H     2.669047    0.709272   -0.171605   -0.009201   -0.006614    0.001891
H    -1.022556    0.824574    0.315741    0.630021   -0.760072   -1.353604
13
* Frequency(36) 3355.5964
C     1.654006    0.338905   -0.072440    0.002792    0.000307   -0.000099
C     1.416920   -0.968751    0.212096   -0.000364    0.000158   -0.000197
N     0.169609   -1.530420    0.333733    0.001031    0.000256   -0.000057
C    -1.012773   -0.874351    0.187934    0.002225    0.004333   -0.000608
N    -0.860501    0.630857   -0.021131   -0.089017    0.075840    0.035459
C     0.581796    1.264739   -0.274115   -0.004278   -0.004758    0.001354
O    -2.114364   -1.336125    0.228131   -0.001624   -0.001410    0.000170
O     0.565991    2.420704   -0.573961    0.000501    0.002043   -0.000385
H     2.239449   -1.673512    0.354788    0.000763   -0.000654   -0.000178
H     0.099556   -2.542155    0.515964    0.001153   -0.028278    0.005414
H    -1.248361    0.799163   -0.545145    0.613256   -0.272331    0.852578
H     2.669308    0.709459   -0.171658   -0.009201   -0.006614    0.001891
H    -1.040375    0.846072    0.354027    0.630021   -0.760072   -1.353604
13
* Frequency(36) 3355.5964
C     1.653830    0.338885   -0.072434    0.002792    0.000307   -0.000099
C     1.416943   -0.968761    0.212108   -0.000364    0.000158   -0.000197
N     0.169544   -1.530436    0.333737    0.001031    0.000256   -0.000057
C    -1.012913   -0.874624    0.187973    0.002225    0.004333   -0.000608
N    -0.854892    0.626077   -0.023366   -0.089017    0.075840    0.035459
C     0.582065    1.265039   -0.274201   -0.004278   -0.004758    0.001354
O    -2.114262   -1.336037    0.228120   -0.001624   -0.001410    0.000170
O     0.565959    2.420575   -0.573937    0.000501    0.002043   -0.000385
H     2.239400   -1.673471    0.354799    0.000763   -0.000654   -0.000178
H     0.099483   -2.540373    0.515622    0.001153   -0.028278    0.005414
H    -1.287007    0.816324   -0.598872    0.613256   -0.272331    0.852578
H     2.669887    0.709876   -0.171778   -0.009201   -0.006614    0.001891
H    -1.080078    0.893969    0.439327    0.630021   -0.760072   -1.353604
13
* Frequency(36) 3355.5964
C     1.653576    0.338858   -0.072425    0.002792    0.000307   -0.000099
C     1.416976   -0.968776    0.212126   -0.000364    0.000158   -0.000197
N     0.169450   -1.530460    0.333742    0.001031    0.000256   -0.000057
C    -1.013116   -0.875018    0.188028    0.002225    0.004333   -0.000608
N    -0.846798    0.619182   -0.026590   -0.089017    0.075840    0.035459
C     0.582454    1.265472   -0.274324   -0.004278   -0.004758    0.001354
O    -2.114114   -1.335908    0.228105   -0.001624   -0.001410    0.000170
O     0.565913    2.420390   -0.573902    0.000501    0.002043   -0.000385
H     2.239331   -1.673411    0.354815    0.000763   -0.000654   -0.000178
H     0.099378   -2.537802    0.515130    0.001153   -0.028278    0.005414
H    -1.342765    0.841085   -0.676390    0.613256   -0.272331    0.852578
H     2.670724    0.710477   -0.171949   -0.009201   -0.006614    0.001891
H    -1.137360    0.963076    0.562399    0.630021   -0.760072   -1.353604
13
* Frequency(36) 3355.5964
C     1.653272    0.338824   -0.072414    0.002792    0.000307   -0.000099
C     1.417015   -0.968793    0.212147   -0.000364    0.000158   -0.000197
N     0.169338   -1.530488    0.333749    0.001031    0.000256   -0.000057
C    -1.013358   -0.875490    0.188094    0.002225    0.004333   -0.000608
N    -0.837098    0.610917   -0.030454   -0.089017    0.075840    0.035459
C     0.582921    1.265990   -0.274472   -0.004278   -0.004758    0.001354
O    -2.113937   -1.335755    0.228086   -0.001624   -0.001410    0.000170
O     0.565859    2.420167   -0.573860    0.000501    0.002043   -0.000385
H     2.239248   -1.673340    0.354834    0.000763   -0.000654   -0.000178
H     0.099253   -2.534720    0.514540    0.001153   -0.028278    0.005414
H    -1.409594    0.870762   -0.769299    0.613256   -0.272331    0.852578
H     2.671727    0.711198   -0.172156   -0.009201   -0.006614    0.001891
H    -1.206016    1.045904    0.709906    0.630021   -0.760072   -1.353604
13
* Frequency(36) 3355.5964
C     1.652950    0.338789   -0.072403    0.002792    0.000307   -0.000099
C     1.417057   -0.968811    0.212170   -0.000364    0.000158   -0.000197
N     0.169219   -1.530517    0.333755    0.001031    0.000256   -0.000057
C    -1.013614   -0.875989    0.188164    0.002225    0.004333   -0.000608
N    -0.826841    0.602179   -0.034540   -0.089017    0.075840    0.035459
C     0.583414    1.266539   -0.274628   -0.004278   -0.004758    0.001354
O    -2.113750   -1.335592    0.228066   -0.001624   -0.001410    0.000170
O     0.565801    2.419932   -0.573816    0.000501    0.002043   -0.000385
H     2.239160   -1.673265    0.354855    0.000763   -0.000654   -0.000178
H     0.099120   -2.531462    0.513916    0.001153   -0.028278    0.005414
H    -1.480251    0.902139   -0.867529    0.613256   -0.272331    0.852578
H     2.672787    0.711960   -0.172374   -0.009201   -0.006614    0.001891
H    -1.278605    1.133477    0.865863    0.630021   -0.760072   -1.353604
13
* Frequency(36) 3355.5964
C     1.652646    0.338755   -0.072392    0.002792    0.000307   -0.000099
C     1.417097   -0.968828    0.212192   -0.000364    0.000158   -0.000197
N     0.169107   -1.530545    0.333761    0.001031    0.000256   -0.000057
C    -1.013857   -0.876461    0.188231    0.002225    0.004333   -0.000608
N    -0.817141    0.593915   -0.038404   -0.089017    0.075840    0.035459
C     0.583880    1.267057   -0.274775   -0.004278   -0.004758    0.001354
O    -2.113573   -1.335439    0.228048   -0.001624   -0.001410    0.000170
O     0.565746    2.419709   -0.573774    0.000501    0.002043   -0.000385
H     2.239077   -1.673194    0.354874    0.000763   -0.000654   -0.000178
H     0.098994   -2.528381    0.513326    0.001153   -0.028278    0.005414
H    -1.547079    0.931816   -0.960438    0.613256   -0.272331    0.852578
H     2.673789    0.712681   -0.172580   -0.009201   -0.006614    0.001891
H    -1.347260    1.216305    1.013370    0.630021   -0.760072   -1.353604
13
* Frequency(36) 3355.5964
C     1.652392    0.338727   -0.072383    0.002792    0.000307   -0.000099
C     1.417130   -0.968843    0.212209   -0.000364    0.000158   -0.000197
N     0.169013   -1.530568    0.333767    0.001031    0.000256   -0.000057
C    -1.014059   -0.876855    0.188286    0.002225    0.004333   -0.000608
N    -0.809047    0.587019   -0.041628   -0.089017    0.075840    0.035459
C     0.584269    1.267490   -0.274898   -0.004278   -0.004758    0.001354
O    -2.113425   -1.335311    0.228032   -0.001624   -0.001410    0.000170
O     0.565701    2.419523   -0.573739    0.000501    0.002043   -0.000385
H     2.239007   -1.673134    0.354891    0.000763   -0.000654   -0.000178
H     0.098890   -2.525810    0.512834    0.001153   -0.028278    0.005414
H    -1.602838    0.956577   -1.037956    0.613256   -0.272331    0.852578
H     2.674626    0.713282   -0.172752   -0.009201   -0.006614    0.001891
H    -1.404543    1.285412    1.136443    0.630021   -0.760072   -1.353604
13
* Frequency(36) 3355.5964
C     1.652216    0.338708   -0.072377    0.002792    0.000307   -0.000099
C     1.417153   -0.968853    0.212222   -0.000364    0.000158   -0.000197
N     0.168948   -1.530585    0.333770    0.001031    0.000256   -0.000057
C    -1.014199   -0.877128    0.188324    0.002225    0.004333   -0.000608
N    -0.803438    0.582240   -0.043862   -0.089017    0.075840    0.035459
C     0.584538    1.267790   -0.274984   -0.004278   -0.004758    0.001354
O    -2.113323   -1.335222    0.228022   -0.001624   -0.001410    0.000170
O     0.565669    2.419394   -0.573714    0.000501    0.002043   -0.000385
H     2.238959   -1.673093    0.354902    0.000763   -0.000654   -0.000178
H     0.098817   -2.524028    0.512493    0.001153   -0.028278    0.005414
H    -1.641484    0.973738   -1.091683    0.613256   -0.272331    0.852578
H     2.675206    0.713699   -0.172871   -0.009201   -0.006614    0.001891
H    -1.444245    1.333309    1.221743    0.630021   -0.760072   -1.353604
13
* Frequency(36) 3355.5964
C     1.652137    0.338699   -0.072374    0.002792    0.000307   -0.000099
C     1.417164   -0.968857    0.212227   -0.000364    0.000158   -0.000197
N     0.168919   -1.530592    0.333772    0.001031    0.000256   -0.000057
C    -1.014262   -0.877251    0.188342    0.002225    0.004333   -0.000608
N    -0.800920    0.580095   -0.044865   -0.089017    0.075840    0.035459
C     0.584659    1.267924   -0.275022   -0.004278   -0.004758    0.001354
O    -2.113277   -1.335182    0.228017   -0.001624   -0.001410    0.000170
O     0.565655    2.419337   -0.573703    0.000501    0.002043   -0.000385
H     2.238938   -1.673074    0.354907    0.000763   -0.000654   -0.000178
H     0.098784   -2.523228    0.512340    0.001153   -0.028278    0.005414
H    -1.658829    0.981441   -1.115797    0.613256   -0.272331    0.852578
H     2.675466    0.713886   -0.172924   -0.009201   -0.006614    0.001891
H    -1.462065    1.354807    1.260028    0.630021   -0.760072   -1.353604
13
* Frequency(36) 3355.5964
C     1.652164    0.338702   -0.072375    0.002792    0.000307   -0.000099
C     1.417160   -0.968856    0.212226   -0.000364    0.000158   -0.000197
N     0.168928   -1.530589    0.333771    0.001031    0.000256   -0.000057
C    -1.014241   -0.877210    0.188336    0.002225    0.004333   -0.000608
N    -0.801767    0.580817   -0.044528   -0.089017    0.075840    0.035459
C     0.584619    1.267879   -0.275009   -0.004278   -0.004758    0.001354
O    -2.113292   -1.335195    0.228019   -0.001624   -0.001410    0.000170
O     0.565660    2.419356   -0.573707    0.000501    0.002043   -0.000385
H     2.238945   -1.673081    0.354905    0.000763   -0.000654   -0.000178
H     0.098795   -2.523497    0.512391    0.001153   -0.028278    0.005414
H    -1.652994    0.978850   -1.107685    0.613256   -0.272331    0.852578
H     2.675379    0.713823   -0.172906   -0.009201   -0.006614    0.001891
H    -1.456070    1.347575    1.247149    0.630021   -0.760072   -1.353604
13
* Frequency(36) 3355.5964
C     1.652293    0.338717   -0.072380    0.002792    0.000307   -0.000099
C     1.417143   -0.968848    0.212216   -0.000364    0.000158   -0.000197
N     0.168976   -1.530577    0.333769    0.001031    0.000256   -0.000057
C    -1.014138   -0.877009    0.188308    0.002225    0.004333   -0.000608
N    -0.805887    0.584327   -0.042887   -0.089017    0.075840    0.035459
C     0.584421    1.267659   -0.274946   -0.004278   -0.004758    0.001354
O    -2.113368   -1.335261    0.228026   -0.001624   -0.001410    0.000170
O     0.565683    2.419451   -0.573725    0.000501    0.002043   -0.000385
H     2.238980   -1.673111    0.354897    0.000763   -0.000654   -0.000178
H     0.098849   -2.524806    0.512642    0.001153   -0.028278    0.005414
H    -1.624611    0.966246   -1.068227    0.613256   -0.272331    0.852578
H     2.674953    0.713517   -0.172819   -0.009201   -0.006614    0.001891
H    -1.426912    1.312398    1.184502    0.630021   -0.760072   -1.353604
13
* Frequency(36) 3355.5964
C     1.652511    0.338740   -0.072387    0.002792    0.000307   -0.000099
C     1.417115   -0.968836    0.212201   -0.000364    0.000158   -0.000197
N     0.169057   -1.530557    0.333764    0.001031    0.000256   -0.000057
C    -1.013965   -0.876671    0.188260    0.002225    0.004333   -0.000608
N    -0.812833    0.590245   -0.040120   -0.089017    0.075840    0.035459
C     0.584087    1.267287   -0.274841   -0.004278   -0.004758    0.001354
O    -2.113494   -1.335371    0.228040   -0.001624   -0.001410    0.000170
O     0.565722    2.419610   -0.573755    0.000501    0.002043   -0.000385
H     2.239040   -1.673162    0.354883    0.000763   -0.000654   -0.000178
H     0.098939   -2.527012    0.513064    0.001153   -0.028278    0.005414
H    -1.576757    0.944995   -1.001697    0.613256   -0.272331    0.852578
H     2.674235    0.713001   -0.172671   -0.009201   -0.006614    0.001891
H    -1.377749    1.253087    1.078875    0.630021   -0.760072   -1.353604
13
* Frequency(36) 3355.5964
C     1.652794    0.338772   -0.072397    0.002792    0.000307   -0.000099
C     1.417078   -0.968820    0.212181   -0.000364    0.000158   -0.000197
N     0.169161   -1.530532    0.333758    0.001031    0.000256   -0.000057
C    -1.013739   -0.876232    0.188199    0.002225    0.004333   -0.000608
N    -0.821853    0.597930   -0.036527   -0.089017    0.075840    0.035459
C     0.583653    1.266805   -0.274703   -0.004278   -0.004758    0.001354
O    -2.113659   -1.335513    0.228057   -0.001624   -0.001410    0.000170
O     0.565773    2.419817   -0.573794    0.000501    0.002043   -0.000385
H     2.239117   -1.673228    0.354865    0.000763   -0.000654   -0.000178
H     0.099055   -2.529878    0.513613    0.001153   -0.028278    0.005414
H    -1.514616    0.917400   -0.915305    0.613256   -0.272331    0.852578
H     2.673302    0.712331   -0.172480   -0.009201   -0.006614    0.001891
H    -1.313909    1.176069    0.941715    0.630021   -0.760072   -1.353604
13
* Frequency(36) 3355.5964
C     1.653111    0.338806   -0.072409    0.002792    0.000307   -0.000099
C     1.417036   -0.968802    0.212159   -0.000364    0.000158   -0.000197
N     0.169278   -1.530502    0.333752    0.001031    0.000256   -0.000057
C    -1.013486   -0.875739    0.188129    0.002225    0.004333   -0.000608
N    -0.831970    0.606548   -0.032497   -0.089017    0.075840    0.035459
C     0.583167    1.266264   -0.274550   -0.004278   -0.004758    0.001354
O    -2.113843   -1.335674    0.228076   -0.001624   -0.001410    0.000170
O     0.565830    2.420049   -0.573838    0.000501    0.002043   -0.000385
H     2.239204   -1.673303    0.354845    0.000763   -0.000654   -0.000178
H     0.099186   -2.533091    0.514228    0.001153   -0.028278    0.005414
H    -1.444922    0.886451   -0.818414    0.613256   -0.272331    0.852578
H     2.672257    0.711579   -0.172265   -0.009201   -0.006614    0.001891
H    -1.242310    1.089691    0.787885    0.630021   -0.760072   -1.353604
