13
* (null), Energy   -1000.0000000
C     1.365855    0.533997   -0.017795    0.315093    0.007303    0.003279
C     1.281863   -0.788655    0.093257    0.122750   -0.047617    0.006628
N    -0.021011   -1.450395    0.118437    0.118220   -0.376262    0.040641
C    -1.289878   -0.622329    0.007801    0.201337   -0.151763    0.019987
N    -1.064188    0.706802   -0.097341    0.591775   -0.347246    0.048762
C     0.168081    1.391376   -0.119566    0.191908   -0.050790    0.008838
O    -2.334795   -1.198357    0.024143   -0.379773    0.917897   -0.092167
O     0.193513    2.595440   -0.217241   -0.976049   -0.017937   -0.025574
H     2.123010   -1.478478    0.173803    0.143892   -0.027227    0.003090
H    -0.114939   -2.012404    0.984263    0.271530   -0.373524    0.065087
H    -1.901448    1.289086   -0.172072    0.618621   -0.324547    0.047096
H     2.334895    1.034094   -0.036100    0.444016   -0.228650    0.021202
H    -0.071619   -2.162707   -0.633029    0.272631   -0.382568    0.028477
13
* Frequency(9)  392.1842
C     1.401664    0.534827   -0.017423    0.315093    0.007303    0.003279
C     1.295813   -0.794067    0.094010    0.122750   -0.047617    0.006628
N    -0.007576   -1.493155    0.123056    0.118220   -0.376262    0.040641
C    -1.266997   -0.639577    0.010073    0.201337   -0.151763    0.019987
N    -0.996936    0.667339   -0.091800    0.591775   -0.347246    0.048762
C     0.189890    1.385604   -0.118562    0.191908   -0.050790    0.008838
O    -2.377954   -1.094043    0.013669   -0.379773    0.917897   -0.092167
O     0.082590    2.593402   -0.220148   -0.976049   -0.017937   -0.025574
H     2.139363   -1.481572    0.174155    0.143892   -0.027227    0.003090
H    -0.084081   -2.054853    0.991660    0.271530   -0.373524    0.065087
H    -1.831145    1.252203   -0.166720    0.618621   -0.324547    0.047096
H     2.385355    1.008109   -0.033690    0.444016   -0.228650    0.021202
H    -0.040636   -2.206183   -0.629792    0.272631   -0.382568    0.028477
13
* Frequency(9)  392.1842
C     1.433592    0.535567   -0.017091    0.315093    0.007303    0.003279
C     1.308251   -0.798892    0.094682    0.122750   -0.047617    0.006628
N     0.004404   -1.531282    0.127174    0.118220   -0.376262    0.040641
C    -1.246595   -0.654955    0.012098    0.201337   -0.151763    0.019987
N    -0.936971    0.632153   -0.086859    0.591775   -0.347246    0.048762
C     0.209336    1.380457   -0.117666    0.191908   -0.050790    0.008838
O    -2.416437   -1.001033    0.004330   -0.379773    0.917897   -0.092167
O    -0.016313    2.591584   -0.222739   -0.976049   -0.017937   -0.025574
H     2.153943   -1.484331    0.174468    0.143892   -0.027227    0.003090
H    -0.056567   -2.092702    0.998255    0.271530   -0.373524    0.065087
H    -1.768460    1.219317   -0.161948    0.618621   -0.324547    0.047096
H     2.430347    0.984940   -0.031542    0.444016   -0.228650    0.021202
H    -0.013010   -2.244949   -0.626907    0.272631   -0.382568    0.028477
13
* Frequency(9)  392.1842
C     1.458180    0.536137   -0.016835    0.315093    0.007303    0.003279
C     1.317830   -0.802608    0.095199    0.122750   -0.047617    0.006628
N     0.013629   -1.560643    0.130346    0.118220   -0.376262    0.040641
C    -1.230884   -0.666797    0.013657    0.201337   -0.151763    0.019987
N    -0.890793    0.605056   -0.083054    0.591775   -0.347246    0.048762
C     0.224312    1.376494   -0.116977    0.191908   -0.050790    0.008838
O    -2.446072   -0.929406   -0.002863   -0.379773    0.917897   -0.092167
O    -0.092478    2.590185   -0.224735   -0.976049   -0.017937   -0.025574
H     2.165172   -1.486456    0.174709    0.143892   -0.027227    0.003090
H    -0.035378   -2.121850    1.003334    0.271530   -0.373524    0.065087
H    -1.720187    1.193991   -0.158273    0.618621   -0.324547    0.047096
H     2.464995    0.967098   -0.029888    0.444016   -0.228650    0.021202
H     0.008264   -2.274802   -0.624685    0.272631   -0.382568    0.028477
13
* Frequency(9)  392.1842
C     1.472763    0.536475   -0.016683    0.315093    0.007303    0.003279
C     1.323511   -0.804812    0.095506    0.122750   -0.047617    0.006628
N     0.019100   -1.578057    0.132226    0.118220   -0.376262    0.040641
C    -1.221566   -0.673821    0.014582    0.201337   -0.151763    0.019987
N    -0.863404    0.588985   -0.080797    0.591775   -0.347246    0.048762
C     0.233194    1.374143   -0.116568    0.191908   -0.050790    0.008838
O    -2.463648   -0.886924   -0.007128   -0.379773    0.917897   -0.092167
O    -0.137651    2.589355   -0.225918   -0.976049   -0.017937   -0.025574
H     2.171831   -1.487716    0.174852    0.143892   -0.027227    0.003090
H    -0.022811   -2.139137    1.006347    0.271530   -0.373524    0.065087
H    -1.691556    1.178970   -0.156093    0.618621   -0.324547    0.047096
H     2.485545    0.956515   -0.028906    0.444016   -0.228650    0.021202
H     0.020882   -2.292508   -0.623367    0.272631   -0.382568    0.028477
13
* Frequency(9)  392.1842
C     1.475761    0.536545   -0.016652    0.315093    0.007303    0.003279
C     1.324679   -0.805265    0.095569    0.122750   -0.047617    0.006628
N     0.020225   -1.581637    0.132613    0.118220   -0.376262    0.040641
C    -1.219650   -0.675265    0.014773    0.201337   -0.151763    0.019987
N    -0.857774    0.585681   -0.080333    0.591775   -0.347246    0.048762
C     0.235020    1.373660   -0.116484    0.191908   -0.050790    0.008838
O    -2.467262   -0.878191   -0.008005   -0.379773    0.917897   -0.092167
O    -0.146938    2.589184   -0.226162   -0.976049   -0.017937   -0.025574
H     2.173200   -1.487975    0.174881    0.143892   -0.027227    0.003090
H    -0.020228   -2.142691    1.006966    0.271530   -0.373524    0.065087
H    -1.685670    1.175882   -0.155645    0.618621   -0.324547    0.047096
H     2.489770    0.954340   -0.028705    0.444016   -0.228650    0.021202
H     0.023476   -2.296148   -0.623096    0.272631   -0.382568    0.028477
13
* Frequency(9)  392.1842
C     1.466849    0.536338   -0.016744    0.315093    0.007303    0.003279
C     1.321207   -0.803918    0.095381    0.122750   -0.047617    0.006628
N     0.016881   -1.570995    0.131464    0.118220   -0.376262    0.040641
C    -1.225345   -0.670973    0.014207    0.201337   -0.151763    0.019987
N    -0.874512    0.595502   -0.081712    0.591775   -0.347246    0.048762
C     0.229592    1.375097   -0.116734    0.191908   -0.050790    0.008838
O    -2.456520   -0.904152   -0.005398   -0.379773    0.917897   -0.092167
O    -0.119331    2.589691   -0.225438   -0.976049   -0.017937   -0.025574
H     2.169130   -1.487205    0.174794    0.143892   -0.027227    0.003090
H    -0.027908   -2.132126    1.005125    0.271530   -0.373524    0.065087
H    -1.703167    1.185062   -0.156977    0.618621   -0.324547    0.047096
H     2.477211    0.960807   -0.029304    0.444016   -0.228650    0.021202
H     0.015765   -2.285327   -0.623901    0.272631   -0.382568    0.028477
13
* Frequency(9)  392.1842
C     1.446992    0.535878   -0.016951    0.315093    0.007303    0.003279
C     1.313472   -0.800917    0.094964    0.122750   -0.047617    0.006628
N     0.009431   -1.547284    0.128903    0.118220   -0.376262    0.040641
C    -1.238032   -0.661409    0.012948    0.201337   -0.151763    0.019987
N    -0.911804    0.617385   -0.084785    0.591775   -0.347246    0.048762
C     0.217498    1.378297   -0.117291    0.191908   -0.050790    0.008838
O    -2.432588   -0.961996    0.000410   -0.379773    0.917897   -0.092167
O    -0.057823    2.590822   -0.223827   -0.976049   -0.017937   -0.025574
H     2.160063   -1.485489    0.174599    0.143892   -0.027227    0.003090
H    -0.045019   -2.108588    1.001023    0.271530   -0.373524    0.065087
H    -1.742151    1.205514   -0.159945    0.618621   -0.324547    0.047096
H     2.449230    0.975216   -0.030640    0.444016   -0.228650    0.021202
H    -0.001416   -2.261219   -0.625696    0.272631   -0.382568    0.028477
13
* Frequency(9)  392.1842
C     1.418344    0.535214   -0.017249    0.315093    0.007303    0.003279
C     1.302311   -0.796588    0.094361    0.122750   -0.047617    0.006628
N    -0.001317   -1.513073    0.125207    0.118220   -0.376262    0.040641
C    -1.256338   -0.647610    0.011131    0.201337   -0.151763    0.019987
N    -0.965609    0.648957   -0.089218    0.591775   -0.347246    0.048762
C     0.200049    1.382915   -0.118094    0.191908   -0.050790    0.008838
O    -2.398058   -1.045452    0.008790   -0.379773    0.917897   -0.092167
O     0.030921    2.592452   -0.221501   -0.976049   -0.017937   -0.025574
H     2.146980   -1.483013    0.174318    0.143892   -0.027227    0.003090
H    -0.069707   -2.074626    0.995106    0.271530   -0.373524    0.065087
H    -1.798397    1.235022   -0.164227    0.618621   -0.324547    0.047096
H     2.408860    0.996005   -0.032568    0.444016   -0.228650    0.021202
H    -0.026204   -2.226435   -0.628285    0.272631   -0.382568    0.028477
13
* Frequency(9)  392.1842
C     1.384007    0.534418   -0.017607    0.315093    0.007303    0.003279
C     1.288934   -0.791399    0.093639    0.122750   -0.047617    0.006628
N    -0.014200   -1.472071    0.120779    0.118220   -0.376262    0.040641
C    -1.278279   -0.631072    0.008953    0.201337   -0.151763    0.019987
N    -1.030097    0.686798   -0.094532    0.591775   -0.347246    0.048762
C     0.179137    1.388450   -0.119057    0.191908   -0.050790    0.008838
O    -2.356673   -1.145479    0.018834   -0.379773    0.917897   -0.092167
O     0.137284    2.594407   -0.218714   -0.976049   -0.017937   -0.025574
H     2.131299   -1.480046    0.173981    0.143892   -0.027227    0.003090
H    -0.099296   -2.033922    0.988013    0.271530   -0.373524    0.065087
H    -1.865810    1.270389   -0.169359    0.618621   -0.324547    0.047096
H     2.360474    1.020922   -0.034879    0.444016   -0.228650    0.021202
H    -0.055913   -2.184746   -0.631388    0.272631   -0.382568    0.028477
13
* Frequency(9)  392.1842
C     1.347703    0.533577   -0.017984    0.315093    0.007303    0.003279
C     1.274792   -0.785912    0.092875    0.122750   -0.047617    0.006628
N    -0.027821   -1.428719    0.116096    0.118220   -0.376262    0.040641
C    -1.301476   -0.613587    0.006650    0.201337   -0.151763    0.019987
N    -1.098279    0.726806   -0.100150    0.591775   -0.347246    0.048762
C     0.157026    1.394302   -0.120075    0.191908   -0.050790    0.008838
O    -2.312917   -1.251235    0.029453   -0.379773    0.917897   -0.092167
O     0.249741    2.596474   -0.215768   -0.976049   -0.017937   -0.025574
H     2.114721   -1.476909    0.173625    0.143892   -0.027227    0.003090
H    -0.130581   -1.990886    0.980514    0.271530   -0.373524    0.065087
H    -1.937086    1.307783   -0.174786    0.618621   -0.324547    0.047096
H     2.309316    1.047266   -0.037321    0.444016   -0.228650    0.021202
H    -0.087325   -2.140668   -0.634669    0.272631   -0.382568    0.028477
13
* Frequency(9)  392.1842
C     1.313366    0.532781   -0.018342    0.315093    0.007303    0.003279
C     1.261415   -0.780723    0.092153    0.122750   -0.047617    0.006628
N    -0.040704   -1.387717    0.111667    0.118220   -0.376262    0.040641
C    -1.323417   -0.597049    0.004472    0.201337   -0.151763    0.019987
N    -1.162767    0.764647   -0.105464    0.591775   -0.347246    0.048762
C     0.136113    1.399837   -0.121039    0.191908   -0.050790    0.008838
O    -2.271532   -1.351262    0.039497   -0.379773    0.917897   -0.092167
O     0.356105    2.598428   -0.212981   -0.976049   -0.017937   -0.025574
H     2.099040   -1.473942    0.173289    0.143892   -0.027227    0.003090
H    -0.160170   -1.950182    0.973421    0.271530   -0.373524    0.065087
H    -2.004499    1.343150   -0.179918    0.618621   -0.324547    0.047096
H     2.260930    1.072183   -0.039632    0.444016   -0.228650    0.021202
H    -0.117034   -2.098978   -0.637772    0.272631   -0.382568    0.028477
13
* Frequency(9)  392.1842
C     1.284718    0.532117   -0.018640    0.315093    0.007303    0.003279
C     1.250254   -0.776394    0.091550    0.122750   -0.047617    0.006628
N    -0.051453   -1.353506    0.107972    0.118220   -0.376262    0.040641
C    -1.341723   -0.583250    0.002654    0.201337   -0.151763    0.019987
N    -1.216572    0.796219   -0.109898    0.591775   -0.347246    0.048762
C     0.118664    1.404454   -0.121842    0.191908   -0.050790    0.008838
O    -2.237002   -1.434719    0.047877   -0.379773    0.917897   -0.092167
O     0.444849    2.600059   -0.210656   -0.976049   -0.017937   -0.025574
H     2.085957   -1.471467    0.173008    0.143892   -0.027227    0.003090
H    -0.184858   -1.916220    0.967503    0.271530   -0.373524    0.065087
H    -2.060745    1.372658   -0.184200    0.618621   -0.324547    0.047096
H     2.220559    1.092972   -0.041560    0.444016   -0.228650    0.021202
H    -0.141822   -2.064194   -0.640362    0.272631   -0.382568    0.028477
13
* Frequency(9)  392.1842
C     1.264861    0.531657   -0.018846    0.315093    0.007303    0.003279
C     1.242519   -0.773393    0.091132    0.122750   -0.047617    0.006628
N    -0.058903   -1.329795    0.105411    0.118220   -0.376262    0.040641
C    -1.354410   -0.573686    0.001395    0.201337   -0.151763    0.019987
N    -1.253864    0.818101   -0.112970    0.591775   -0.347246    0.048762
C     0.106571    1.407655   -0.122399    0.191908   -0.050790    0.008838
O    -2.213070   -1.492562    0.053685   -0.379773    0.917897   -0.092167
O     0.506357    2.601189   -0.209044   -0.976049   -0.017937   -0.025574
H     2.076890   -1.469751    0.172813    0.143892   -0.027227    0.003090
H    -0.201969   -1.892682    0.963402    0.271530   -0.373524    0.065087
H    -2.099729    1.393110   -0.187168    0.618621   -0.324547    0.047096
H     2.192578    1.107381   -0.042896    0.444016   -0.228650    0.021202
H    -0.159003   -2.040086   -0.642156    0.272631   -0.382568    0.028477
13
* Frequency(9)  392.1842
C     1.255949    0.531450   -0.018939    0.315093    0.007303    0.003279
C     1.239047   -0.772046    0.090945    0.122750   -0.047617    0.006628
N    -0.062246   -1.319153    0.104261    0.118220   -0.376262    0.040641
C    -1.360105   -0.569394    0.000830    0.201337   -0.151763    0.019987
N    -1.270602    0.827923   -0.114350    0.591775   -0.347246    0.048762
C     0.101143    1.409092   -0.122649    0.191908   -0.050790    0.008838
O    -2.202328   -1.518524    0.056292   -0.379773    0.917897   -0.092167
O     0.533963    2.601697   -0.208321   -0.976049   -0.017937   -0.025574
H     2.072820   -1.468981    0.172725    0.143892   -0.027227    0.003090
H    -0.209649   -1.882117    0.961561    0.271530   -0.373524    0.065087
H    -2.117226    1.402290   -0.188500    0.618621   -0.324547    0.047096
H     2.180020    1.113848   -0.043495    0.444016   -0.228650    0.021202
H    -0.166714   -2.029265   -0.642962    0.272631   -0.382568    0.028477
13
* Frequency(9)  392.1842
C     1.258947    0.531519   -0.018908    0.315093    0.007303    0.003279
C     1.240215   -0.772499    0.091008    0.122750   -0.047617    0.006628
N    -0.061122   -1.322733    0.104648    0.118220   -0.376262    0.040641
C    -1.358189   -0.570838    0.001020    0.201337   -0.151763    0.019987
N    -1.264971    0.824619   -0.113886    0.591775   -0.347246    0.048762
C     0.102969    1.408608   -0.122565    0.191908   -0.050790    0.008838
O    -2.205942   -1.509790    0.055415   -0.379773    0.917897   -0.092167
O     0.524677    2.601526   -0.208564   -0.976049   -0.017937   -0.025574
H     2.074189   -1.469240    0.172755    0.143892   -0.027227    0.003090
H    -0.207066   -1.885671    0.962180    0.271530   -0.373524    0.065087
H    -2.111340    1.399202   -0.188052    0.618621   -0.324547    0.047096
H     2.184245    1.111673   -0.043294    0.444016   -0.228650    0.021202
H    -0.164120   -2.032905   -0.642691    0.272631   -0.382568    0.028477
13
* Frequency(9)  392.1842
C     1.273530    0.531857   -0.018756    0.315093    0.007303    0.003279
C     1.245896   -0.774703    0.091315    0.122750   -0.047617    0.006628
N    -0.055650   -1.340147    0.106529    0.118220   -0.376262    0.040641
C    -1.348871   -0.577862    0.001945    0.201337   -0.151763    0.019987
N    -1.237583    0.808548   -0.111629    0.591775   -0.347246    0.048762
C     0.111850    1.406258   -0.122156    0.191908   -0.050790    0.008838
O    -2.223518   -1.467308    0.051149   -0.379773    0.917897   -0.092167
O     0.479503    2.600696   -0.209748   -0.976049   -0.017937   -0.025574
H     2.080848   -1.470500    0.172898    0.143892   -0.027227    0.003090
H    -0.194499   -1.902958    0.965192    0.271530   -0.373524    0.065087
H    -2.082709    1.384181   -0.185872    0.618621   -0.324547    0.047096
H     2.204794    1.101090   -0.042312    0.444016   -0.228650    0.021202
H    -0.151502   -2.050611   -0.641373    0.272631   -0.382568    0.028477
13
* Frequency(9)  392.1842
C     1.298118    0.532427   -0.018500    0.315093    0.007303    0.003279
C     1.255475   -0.778419    0.091832    0.122750   -0.047617    0.006628
N    -0.046425   -1.369508    0.109700    0.118220   -0.376262    0.040641
C    -1.333160   -0.589704    0.003504    0.201337   -0.151763    0.019987
N    -1.191404    0.781451   -0.107824    0.591775   -0.347246    0.048762
C     0.126826    1.402294   -0.121466    0.191908   -0.050790    0.008838
O    -2.253154   -1.395681    0.043957   -0.379773    0.917897   -0.092167
O     0.403338    2.599296   -0.211743   -0.976049   -0.017937   -0.025574
H     2.092077   -1.472625    0.173139    0.143892   -0.027227    0.003090
H    -0.173311   -1.932106    0.970271    0.271530   -0.373524    0.065087
H    -2.034436    1.358855   -0.182197    0.618621   -0.324547    0.047096
H     2.239443    1.083248   -0.040658    0.444016   -0.228650    0.021202
H    -0.130228   -2.080464   -0.639151    0.272631   -0.382568    0.028477
13
* Frequency(9)  392.1842
C     1.330046    0.533167   -0.018168    0.315093    0.007303    0.003279
C     1.267913   -0.783244    0.092503    0.122750   -0.047617    0.006628
N    -0.034446   -1.407635    0.113819    0.118220   -0.376262    0.040641
C    -1.312758   -0.605082    0.005530    0.201337   -0.151763    0.019987
N    -1.131440    0.746264   -0.102883    0.591775   -0.347246    0.048762
C     0.146272    1.397148   -0.120571    0.191908   -0.050790    0.008838
O    -2.291636   -1.302671    0.034618   -0.379773    0.917897   -0.092167
O     0.304436    2.597479   -0.214335   -0.976049   -0.017937   -0.025574
H     2.106657   -1.475384    0.173452    0.143892   -0.027227    0.003090
H    -0.145797   -1.969955    0.976867    0.271530   -0.373524    0.065087
H    -1.971751    1.325969   -0.177425    0.618621   -0.324547    0.047096
H     2.284435    1.060079   -0.038510    0.444016   -0.228650    0.021202
H    -0.102602   -2.119230   -0.636265    0.272631   -0.382568    0.028477
13
* Frequency(9)  392.1842
C     1.365855    0.533997   -0.017795    0.315093    0.007303    0.003279
C     1.281863   -0.788655    0.093257    0.122750   -0.047617    0.006628
N    -0.021011   -1.450395    0.118437    0.118220   -0.376262    0.040641
C    -1.289878   -0.622329    0.007801    0.201337   -0.151763    0.019987
N    -1.064188    0.706802   -0.097341    0.591775   -0.347246    0.048762
C     0.168081    1.391376   -0.119566    0.191908   -0.050790    0.008838
O    -2.334795   -1.198357    0.024143   -0.379773    0.917897   -0.092167
O     0.193513    2.595440   -0.217241   -0.976049   -0.017937   -0.025574
H     2.123010   -1.478478    0.173803    0.143892   -0.027227    0.003090
H    -0.114939   -2.012404    0.984263    0.271530   -0.373524    0.065087
H    -1.901448    1.289086   -0.172072    0.618621   -0.324547    0.047096
H     2.334895    1.034094   -0.036100    0.444016   -0.228650    0.021202
H    -0.071619   -2.162707   -0.633029    0.272631   -0.382568    0.028477
