13
* (null), Energy   -1000.0000000
C     1.653111    0.338806   -0.072409   -0.791230   -0.012068    0.034230
C     1.417036   -0.968802    0.212159   -0.126107   -0.155494    0.017759
N     0.169278   -1.530502    0.333752    0.162108   -0.670112    0.137479
C    -1.013486   -0.875739    0.188129    0.404247   -0.280838    0.065360
N    -0.831970    0.606548   -0.032497    0.039744    0.101540   -0.022079
C     0.583167    1.266264   -0.274550   -0.490952    0.277018   -0.053166
O    -2.113843   -1.335674    0.228076    0.206033    0.328385   -0.053577
O     0.565830    2.420049   -0.573838    0.427197    0.353800   -0.103696
H     2.239204   -1.673303    0.354845    0.322315    0.344117   -0.120661
H     0.099186   -2.533091    0.514228    0.152512   -0.698459    0.043117
H    -1.444922    0.886451   -0.818414   -0.341943   -0.365070    0.099860
H     2.672257    0.711579   -0.172265   -0.822424    0.059459    0.051366
H    -1.242310    1.089691    0.787885   -0.202164   -0.224800    0.054183
13
* Frequency(11)  488.5227
C     1.563192    0.337435   -0.068519   -0.791230   -0.012068    0.034230
C     1.402705   -0.986473    0.214177   -0.126107   -0.155494    0.017759
N     0.187701   -1.606657    0.349376    0.162108   -0.670112    0.137479
C    -0.967546   -0.907655    0.195557    0.404247   -0.280838    0.065360
N    -0.827453    0.618088   -0.035006    0.039744    0.101540   -0.022079
C     0.527373    1.297746   -0.280592   -0.490952    0.277018   -0.053166
O    -2.090429   -1.298354    0.221988    0.206033    0.328385   -0.053577
O     0.614379    2.460257   -0.585622    0.427197    0.353800   -0.103696
H     2.275833   -1.634195    0.341132    0.322315    0.344117   -0.120661
H     0.116519   -2.612468    0.519128    0.152512   -0.698459    0.043117
H    -1.483782    0.844962   -0.807065   -0.341943   -0.365070    0.099860
H     2.578793    0.718336   -0.166427   -0.822424    0.059459    0.051366
H    -1.265285    1.064143    0.794042   -0.202164   -0.224800    0.054183
13
* Frequency(11)  488.5227
C     1.483017    0.336212   -0.065050   -0.791230   -0.012068    0.034230
C     1.389927   -1.002229    0.215977   -0.126107   -0.155494    0.017759
N     0.204127   -1.674559    0.363306    0.162108   -0.670112    0.137479
C    -0.926583   -0.936112    0.202180    0.404247   -0.280838    0.065360
N    -0.823426    0.628377   -0.037243    0.039744    0.101540   -0.022079
C     0.477625    1.325816   -0.285979   -0.490952    0.277018   -0.053166
O    -2.069552   -1.265079    0.216559    0.206033    0.328385   -0.053577
O     0.657666    2.496107   -0.596130    0.427197    0.353800   -0.103696
H     2.308493   -1.599326    0.328906    0.322315    0.344117   -0.120661
H     0.131973   -2.683242    0.523497    0.152512   -0.698459    0.043117
H    -1.518431    0.807970   -0.796947   -0.341943   -0.365070    0.099860
H     2.495457    0.724361   -0.161222   -0.822424    0.059459    0.051366
H    -1.285770    1.041364    0.799533   -0.202164   -0.224800    0.054183
13
* Frequency(11)  488.5227
C     1.421274    0.335270   -0.062379   -0.791230   -0.012068    0.034230
C     1.380086   -1.014363    0.217362   -0.126107   -0.155494    0.017759
N     0.216777   -1.726851    0.374034    0.162108   -0.670112    0.137479
C    -0.895038   -0.958027    0.207281    0.404247   -0.280838    0.065360
N    -0.820324    0.636300   -0.038966    0.039744    0.101540   -0.022079
C     0.439314    1.347433   -0.290128   -0.490952    0.277018   -0.053166
O    -2.053474   -1.239454    0.212378    0.206033    0.328385   -0.053577
O     0.691002    2.523715   -0.604221    0.427197    0.353800   -0.103696
H     2.333645   -1.572473    0.319490    0.322315    0.344117   -0.120661
H     0.143874   -2.737746    0.526862    0.152512   -0.698459    0.043117
H    -1.545115    0.779482   -0.789154   -0.341943   -0.365070    0.099860
H     2.431280    0.729001   -0.157214   -0.822424    0.059459    0.051366
H    -1.301546    1.023822    0.803761   -0.202164   -0.224800    0.054183
13
* Frequency(11)  488.5227
C     1.384655    0.334712   -0.060795   -0.791230   -0.012068    0.034230
C     1.374250   -1.021559    0.218184   -0.126107   -0.155494    0.017759
N     0.224280   -1.757865    0.380397    0.162108   -0.670112    0.137479
C    -0.876329   -0.971025    0.210306    0.404247   -0.280838    0.065360
N    -0.818485    0.641000   -0.039988    0.039744    0.101540   -0.022079
C     0.416592    1.360254   -0.292588   -0.490952    0.277018   -0.053166
O    -2.043938   -1.224256    0.209898    0.206033    0.328385   -0.053577
O     0.710774    2.540090   -0.609021    0.427197    0.353800   -0.103696
H     2.348562   -1.556547    0.313906    0.322315    0.344117   -0.120661
H     0.150932   -2.770072    0.528858    0.152512   -0.698459    0.043117
H    -1.560940    0.762586   -0.784532   -0.341943   -0.365070    0.099860
H     2.393216    0.731753   -0.154837   -0.822424    0.059459    0.051366
H    -1.310903    1.013418    0.806269   -0.202164   -0.224800    0.054183
13
* Frequency(11)  488.5227
C     1.377127    0.334597   -0.060469   -0.791230   -0.012068    0.034230
C     1.373050   -1.023039    0.218353   -0.126107   -0.155494    0.017759
N     0.225822   -1.764240    0.381705    0.162108   -0.670112    0.137479
C    -0.872483   -0.973697    0.210927    0.404247   -0.280838    0.065360
N    -0.818107    0.641966   -0.040198    0.039744    0.101540   -0.022079
C     0.411921    1.362890   -0.293094   -0.490952    0.277018   -0.053166
O    -2.041978   -1.221131    0.209388    0.206033    0.328385   -0.053577
O     0.714838    2.543456   -0.610007    0.427197    0.353800   -0.103696
H     2.351629   -1.553273    0.312758    0.322315    0.344117   -0.120661
H     0.152383   -2.776717    0.529268    0.152512   -0.698459    0.043117
H    -1.564194    0.759113   -0.783582   -0.341943   -0.365070    0.099860
H     2.385392    0.732319   -0.154348   -0.822424    0.059459    0.051366
H    -1.312826    1.011279    0.806784   -0.202164   -0.224800    0.054183
13
* Frequency(11)  488.5227
C     1.399506    0.334938   -0.061437   -0.791230   -0.012068    0.034230
C     1.376617   -1.018641    0.217851   -0.126107   -0.155494    0.017759
N     0.221237   -1.745287    0.377817    0.162108   -0.670112    0.137479
C    -0.883917   -0.965754    0.209079    0.404247   -0.280838    0.065360
N    -0.819231    0.639094   -0.039573    0.039744    0.101540   -0.022079
C     0.425807    1.355055   -0.291590   -0.490952    0.277018   -0.053166
O    -2.047806   -1.230419    0.210904    0.206033    0.328385   -0.053577
O     0.702755    2.533449   -0.607074    0.427197    0.353800   -0.103696
H     2.342512   -1.563006    0.316170    0.322315    0.344117   -0.120661
H     0.148070   -2.756962    0.528048    0.152512   -0.698459    0.043117
H    -1.554522    0.769438   -0.786407   -0.341943   -0.365070    0.099860
H     2.408653    0.730637   -0.155801   -0.822424    0.059459    0.051366
H    -1.307108    1.017638    0.805252   -0.202164   -0.224800    0.054183
13
* Frequency(11)  488.5227
C     1.449367    0.335699   -0.063594   -0.791230   -0.012068    0.034230
C     1.384564   -1.008842    0.216732   -0.126107   -0.155494    0.017759
N     0.211022   -1.703058    0.369153    0.162108   -0.670112    0.137479
C    -0.909391   -0.948056    0.204960    0.404247   -0.280838    0.065360
N    -0.821735    0.632695   -0.038182    0.039744    0.101540   -0.022079
C     0.456745    1.337598   -0.288240   -0.490952    0.277018   -0.053166
O    -2.060789   -1.251113    0.214280    0.206033    0.328385   -0.053577
O     0.675835    2.511154   -0.600540    0.427197    0.353800   -0.103696
H     2.322201   -1.584691    0.323774    0.322315    0.344117   -0.120661
H     0.138459   -2.712947    0.525331    0.152512   -0.698459    0.043117
H    -1.532974    0.792444   -0.792700   -0.341943   -0.365070    0.099860
H     2.460480    0.726890   -0.159038   -0.822424    0.059459    0.051366
H    -1.294368    1.031804    0.801837   -0.202164   -0.224800    0.054183
13
* Frequency(11)  488.5227
C     1.521307    0.336796   -0.066707   -0.791230   -0.012068    0.034230
C     1.396029   -0.994704    0.215117   -0.126107   -0.155494    0.017759
N     0.196282   -1.642131    0.356653    0.162108   -0.670112    0.137479
C    -0.946146   -0.922522    0.199017    0.404247   -0.280838    0.065360
N    -0.825349    0.623463   -0.036175    0.039744    0.101540   -0.022079
C     0.501384    1.312411   -0.283406   -0.490952    0.277018   -0.053166
O    -2.079522   -1.280971    0.219151    0.206033    0.328385   -0.053577
O     0.636993    2.478986   -0.591111    0.427197    0.353800   -0.103696
H     2.292896   -1.615979    0.334745    0.322315    0.344117   -0.120661
H     0.124592   -2.649442    0.521411    0.152512   -0.698459    0.043117
H    -1.501884    0.825637   -0.801779   -0.341943   -0.365070    0.099860
H     2.535256    0.721484   -0.163708   -0.822424    0.059459    0.051366
H    -1.275987    1.052243    0.796911   -0.202164   -0.224800    0.054183
13
* Frequency(11)  488.5227
C     1.607530    0.338111   -0.070437   -0.791230   -0.012068    0.034230
C     1.409772   -0.977760    0.213182   -0.126107   -0.155494    0.017759
N     0.178617   -1.569106    0.341672    0.162108   -0.670112    0.137479
C    -0.990198   -0.891918    0.191895    0.404247   -0.280838    0.065360
N    -0.829680    0.612398   -0.033769    0.039744    0.101540   -0.022079
C     0.554884    1.282223   -0.277612   -0.490952    0.277018   -0.053166
O    -2.101974   -1.316756    0.224990    0.206033    0.328385   -0.053577
O     0.590440    2.440431   -0.579811    0.427197    0.353800   -0.103696
H     2.257772   -1.653479    0.347894    0.322315    0.344117   -0.120661
H     0.107972   -2.573328    0.516712    0.152512   -0.698459    0.043117
H    -1.464621    0.865420   -0.812661   -0.341943   -0.365070    0.099860
H     2.624878    0.715005   -0.169305   -0.822424    0.059459    0.051366
H    -1.253956    1.076740    0.791006   -0.202164   -0.224800    0.054183
13
* Frequency(11)  488.5227
C     1.698693    0.339502   -0.074380   -0.791230   -0.012068    0.034230
C     1.424301   -0.959844    0.211136   -0.126107   -0.155494    0.017759
N     0.159940   -1.491899    0.325832    0.162108   -0.670112    0.137479
C    -1.036774   -0.859561    0.184364    0.404247   -0.280838    0.065360
N    -0.834259    0.600699   -0.031225    0.039744    0.101540   -0.022079
C     0.611450    1.250306   -0.271487   -0.490952    0.277018   -0.053166
O    -2.125713   -1.354591    0.231163    0.206033    0.328385   -0.053577
O     0.541220    2.399668   -0.567864    0.427197    0.353800   -0.103696
H     2.220636   -1.693126    0.361796    0.322315    0.344117   -0.120661
H     0.090401   -2.492855    0.511744    0.152512   -0.698459    0.043117
H    -1.425224    0.907482   -0.824167   -0.341943   -0.365070    0.099860
H     2.719635    0.708154   -0.175224   -0.822424    0.059459    0.051366
H    -1.230664    1.102641    0.784763   -0.202164   -0.224800    0.054183
13
* Frequency(11)  488.5227
C     1.784916    0.340817   -0.078111   -0.791230   -0.012068    0.034230
C     1.438043   -0.942899    0.209200   -0.126107   -0.155494    0.017759
N     0.142274   -1.418874    0.310850    0.162108   -0.670112    0.137479
C    -1.080826   -0.828957    0.177242    0.404247   -0.280838    0.065360
N    -0.838590    0.589634   -0.028819    0.039744    0.101540   -0.022079
C     0.664951    1.220118   -0.265693   -0.490952    0.277018   -0.053166
O    -2.148165   -1.390377    0.237001    0.206033    0.328385   -0.053577
O     0.494667    2.361113   -0.556564    0.427197    0.353800   -0.103696
H     2.185512   -1.730626    0.374945    0.322315    0.344117   -0.120661
H     0.073781   -2.416741    0.507046    0.152512   -0.698459    0.043117
H    -1.387961    0.947265   -0.835049   -0.341943   -0.365070    0.099860
H     2.809257    0.701675   -0.180821   -0.822424    0.059459    0.051366
H    -1.208633    1.127138    0.778859   -0.202164   -0.224800    0.054183
13
* Frequency(11)  488.5227
C     1.856856    0.341914   -0.081223   -0.791230   -0.012068    0.034230
C     1.449509   -0.928762    0.207586   -0.126107   -0.155494    0.017759
N     0.127535   -1.357946    0.298351    0.162108   -0.670112    0.137479
C    -1.117581   -0.803423    0.171299    0.404247   -0.280838    0.065360
N    -0.842204    0.580401   -0.026811    0.039744    0.101540   -0.022079
C     0.709589    1.194931   -0.260859   -0.490952    0.277018   -0.053166
O    -2.166897   -1.420234    0.241873    0.206033    0.328385   -0.053577
O     0.455825    2.328945   -0.547136    0.427197    0.353800   -0.103696
H     2.156207   -1.761914    0.385915    0.322315    0.344117   -0.120661
H     0.059914   -2.353236    0.503125    0.152512   -0.698459    0.043117
H    -1.356871    0.980457   -0.844128   -0.341943   -0.365070    0.099860
H     2.884034    0.696268   -0.185492   -0.822424    0.059459    0.051366
H    -1.190252    1.147577    0.773933   -0.202164   -0.224800    0.054183
13
* Frequency(11)  488.5227
C     1.906717    0.342674   -0.083380   -0.791230   -0.012068    0.034230
C     1.457456   -0.918963    0.206467   -0.126107   -0.155494    0.017759
N     0.117319   -1.315718    0.289687    0.162108   -0.670112    0.137479
C    -1.143056   -0.785725    0.167180    0.404247   -0.280838    0.065360
N    -0.844708    0.574003   -0.025420    0.039744    0.101540   -0.022079
C     0.740527    1.177474   -0.257509   -0.490952    0.277018   -0.053166
O    -2.179881   -1.440928    0.245249    0.206033    0.328385   -0.053577
O     0.428904    2.306649   -0.540601    0.427197    0.353800   -0.103696
H     2.135895   -1.783599    0.393519    0.322315    0.344117   -0.120661
H     0.050303   -2.309221    0.500408    0.152512   -0.698459    0.043117
H    -1.335322    1.003463   -0.850421   -0.341943   -0.365070    0.099860
H     2.935861    0.692522   -0.188728   -0.822424    0.059459    0.051366
H    -1.177512    1.161743    0.770518   -0.202164   -0.224800    0.054183
13
* Frequency(11)  488.5227
C     1.929096    0.343016   -0.084348   -0.791230   -0.012068    0.034230
C     1.461023   -0.914565    0.205964   -0.126107   -0.155494    0.017759
N     0.112734   -1.296764    0.285799    0.162108   -0.670112    0.137479
C    -1.154490   -0.777782    0.165331    0.404247   -0.280838    0.065360
N    -0.845832    0.571131   -0.024796    0.039744    0.101540   -0.022079
C     0.754413    1.169639   -0.256005   -0.490952    0.277018   -0.053166
O    -2.185709   -1.450216    0.246764    0.206033    0.328385   -0.053577
O     0.416821    2.296642   -0.537668    0.427197    0.353800   -0.103696
H     2.126779   -1.793332    0.396932    0.322315    0.344117   -0.120661
H     0.045990   -2.289466    0.499189    0.152512   -0.698459    0.043117
H    -1.325651    1.013789   -0.853246   -0.341943   -0.365070    0.099860
H     2.959122    0.690840   -0.190181   -0.822424    0.059459    0.051366
H    -1.171794    1.168102    0.768986   -0.202164   -0.224800    0.054183
13
* Frequency(11)  488.5227
C     1.921568    0.342901   -0.084022   -0.791230   -0.012068    0.034230
C     1.459823   -0.916044    0.206133   -0.126107   -0.155494    0.017759
N     0.114277   -1.303140    0.287107    0.162108   -0.670112    0.137479
C    -1.150643   -0.780454    0.165953    0.404247   -0.280838    0.065360
N    -0.845454    0.572097   -0.025006    0.039744    0.101540   -0.022079
C     0.749742    1.172275   -0.256511   -0.490952    0.277018   -0.053166
O    -2.183748   -1.447092    0.246254    0.206033    0.328385   -0.053577
O     0.420886    2.300009   -0.538655    0.427197    0.353800   -0.103696
H     2.129846   -1.790058    0.395784    0.322315    0.344117   -0.120661
H     0.047441   -2.296111    0.499599    0.152512   -0.698459    0.043117
H    -1.328904    1.010315   -0.852296   -0.341943   -0.365070    0.099860
H     2.951297    0.691406   -0.189693   -0.822424    0.059459    0.051366
H    -1.173718    1.165963    0.769501   -0.202164   -0.224800    0.054183
13
* Frequency(11)  488.5227
C     1.884948    0.342342   -0.082438   -0.791230   -0.012068    0.034230
C     1.453987   -0.923241    0.206955   -0.126107   -0.155494    0.017759
N     0.121779   -1.334154    0.293469    0.162108   -0.670112    0.137479
C    -1.131934   -0.793451    0.168978    0.404247   -0.280838    0.065360
N    -0.843615    0.576796   -0.026028    0.039744    0.101540   -0.022079
C     0.727020    1.185096   -0.258972   -0.490952    0.277018   -0.053166
O    -2.174213   -1.431893    0.243775    0.206033    0.328385   -0.053577
O     0.440657    2.316383   -0.543454    0.427197    0.353800   -0.103696
H     2.144763   -1.774132    0.390199    0.322315    0.344117   -0.120661
H     0.054499   -2.328437    0.501595    0.152512   -0.698459    0.043117
H    -1.344730    0.993419   -0.847674   -0.341943   -0.365070    0.099860
H     2.913234    0.694157   -0.187315   -0.822424    0.059459    0.051366
H    -1.183074    1.155559    0.772009   -0.202164   -0.224800    0.054183
13
* Frequency(11)  488.5227
C     1.823206    0.341401   -0.079767   -0.791230   -0.012068    0.034230
C     1.444146   -0.935375    0.208341   -0.126107   -0.155494    0.017759
N     0.134429   -1.386446    0.304197    0.162108   -0.670112    0.137479
C    -1.100389   -0.815366    0.174079    0.404247   -0.280838    0.065360
N    -0.840513    0.584720   -0.027750    0.039744    0.101540   -0.022079
C     0.688709    1.206713   -0.263120   -0.490952    0.277018   -0.053166
O    -2.158135   -1.406268    0.239594    0.206033    0.328385   -0.053577
O     0.473993    2.343991   -0.551546    0.427197    0.353800   -0.103696
H     2.169914   -1.747279    0.380784    0.322315    0.344117   -0.120661
H     0.066400   -2.382941    0.504959    0.152512   -0.698459    0.043117
H    -1.371413    0.964931   -0.839881   -0.341943   -0.365070    0.099860
H     2.849057    0.698797   -0.183307   -0.822424    0.059459    0.051366
H    -1.198850    1.138017    0.776237   -0.202164   -0.224800    0.054183
13
* Frequency(11)  488.5227
C     1.743031    0.340178   -0.076299   -0.791230   -0.012068    0.034230
C     1.431368   -0.951131    0.210141   -0.126107   -0.155494    0.017759
N     0.150856   -1.454348    0.318128    0.162108   -0.670112    0.137479
C    -1.059427   -0.843824    0.180702    0.404247   -0.280838    0.065360
N    -0.836486    0.595009   -0.029988    0.039744    0.101540   -0.022079
C     0.638961    1.234783   -0.268508   -0.490952    0.277018   -0.053166
O    -2.137258   -1.372993    0.234165    0.206033    0.328385   -0.053577
O     0.517281    2.379842   -0.562053    0.427197    0.353800   -0.103696
H     2.202574   -1.712410    0.368557    0.322315    0.344117   -0.120661
H     0.081854   -2.453715    0.509328    0.152512   -0.698459    0.043117
H    -1.406062    0.927939   -0.829763   -0.341943   -0.365070    0.099860
H     2.765721    0.704822   -0.178102   -0.822424    0.059459    0.051366
H    -1.219335    1.115238    0.781727   -0.202164   -0.224800    0.054183
13
* Frequency(11)  488.5227
C     1.653111    0.338806   -0.072409   -0.791230   -0.012068    0.034230
C     1.417036   -0.968802    0.212159   -0.126107   -0.155494    0.017759
N     0.169278   -1.530502    0.333752    0.162108   -0.670112    0.137479
C    -1.013486   -0.875739    0.188129    0.404247   -0.280838    0.065360
N    -0.831970    0.606548   -0.032497    0.039744    0.101540   -0.022079
C     0.583167    1.266264   -0.274550   -0.490952    0.277018   -0.053166
O    -2.113843   -1.335674    0.228076    0.206033    0.328385   -0.053577
O     0.565830    2.420049   -0.573838    0.427197    0.353800   -0.103696
H     2.239204   -1.673303    0.354845    0.322315    0.344117   -0.120661
H     0.099186   -2.533091    0.514228    0.152512   -0.698459    0.043117
H    -1.444922    0.886451   -0.818414   -0.341943   -0.365070    0.099860
H     2.672257    0.711579   -0.172265   -0.822424    0.059459    0.051366
H    -1.242310    1.089691    0.787885   -0.202164   -0.224800    0.054183
