13
* (null), Energy   -1000.0000000
C     1.365855    0.533997   -0.017795    0.002547   -0.047833    0.004057
C     1.281863   -0.788655    0.093257    0.001093    0.021315   -0.001476
N    -0.021011   -1.450395    0.118437   -0.024847   -0.122625    0.010394
C    -1.289878   -0.622329    0.007801    0.029256   -0.042805    0.004972
N    -1.064188    0.706802   -0.097341    0.008391    0.038352   -0.003062
C     0.168081    1.391376   -0.119566    0.009299    0.000141    0.000293
O    -2.334795   -1.198357    0.024143   -0.022823   -0.008604   -0.000005
O     0.193513    2.595440   -0.217241   -0.005884   -0.001408   -0.000029
H     2.123010   -1.478478    0.173803   -0.003048    0.019150   -0.001846
H    -0.114939   -2.012404    0.984263    0.117889    1.155476    0.798275
H    -1.901448    1.289086   -0.172072   -0.054439   -0.047032    0.002140
H     2.334895    1.034094   -0.036100   -0.045984    0.039057   -0.004656
H    -0.071619   -2.162707   -0.633029    0.167108    0.987645   -0.988754
13
* Frequency(30) 1477.5761
C     1.366144    0.528561   -0.017334    0.002547   -0.047833    0.004057
C     1.281987   -0.786233    0.093089    0.001093    0.021315   -0.001476
N    -0.023834   -1.464331    0.119619   -0.024847   -0.122625    0.010394
C    -1.286553   -0.627194    0.008366    0.029256   -0.042805    0.004972
N    -1.063234    0.711160   -0.097689    0.008391    0.038352   -0.003062
C     0.169138    1.391392   -0.119533    0.009299    0.000141    0.000293
O    -2.337389   -1.199335    0.024143   -0.022823   -0.008604   -0.000005
O     0.192844    2.595280   -0.217244   -0.005884   -0.001408   -0.000029
H     2.122664   -1.476301    0.173594   -0.003048    0.019150   -0.001846
H    -0.101541   -1.881090    1.074983    0.117889    1.155476    0.798275
H    -1.907635    1.283741   -0.171829   -0.054439   -0.047032    0.002140
H     2.329669    1.038533   -0.036629   -0.045984    0.039057   -0.004656
H    -0.052628   -2.050466   -0.745395    0.167108    0.987645   -0.988754
13
* Frequency(30) 1477.5761
C     1.366402    0.523714   -0.016923    0.002547   -0.047833    0.004057
C     1.282098   -0.784073    0.092939    0.001093    0.021315   -0.001476
N    -0.026352   -1.476756    0.120672   -0.024847   -0.122625    0.010394
C    -1.283588   -0.631531    0.008870    0.029256   -0.042805    0.004972
N    -1.062384    0.715046   -0.097999    0.008391    0.038352   -0.003062
C     0.170080    1.391406   -0.119503    0.009299    0.000141    0.000293
O    -2.339701   -1.200207    0.024142   -0.022823   -0.008604   -0.000005
O     0.192248    2.595138   -0.217247   -0.005884   -0.001408   -0.000029
H     2.122355   -1.474361    0.173407   -0.003048    0.019150   -0.001846
H    -0.089595   -1.764006    1.155872    0.117889    1.155476    0.798275
H    -1.913151    1.278975   -0.171613   -0.054439   -0.047032    0.002140
H     2.325009    1.042490   -0.037101   -0.045984    0.039057   -0.004656
H    -0.035695   -1.950388   -0.845586    0.167108    0.987645   -0.988754
13
* Frequency(30) 1477.5761
C     1.366601    0.519982   -0.016607    0.002547   -0.047833    0.004057
C     1.282183   -0.782410    0.092824    0.001093    0.021315   -0.001476
N    -0.028291   -1.486325    0.121483   -0.024847   -0.122625    0.010394
C    -1.281305   -0.634872    0.009258    0.029256   -0.042805    0.004972
N    -1.061729    0.718039   -0.098238    0.008391    0.038352   -0.003062
C     0.170806    1.391417   -0.119480    0.009299    0.000141    0.000293
O    -2.341482   -1.200878    0.024142   -0.022823   -0.008604   -0.000005
O     0.191789    2.595028   -0.217250   -0.005884   -0.001408   -0.000029
H     2.122117   -1.472867    0.173263   -0.003048    0.019150   -0.001846
H    -0.080396   -1.673840    1.218164    0.117889    1.155476    0.798275
H    -1.917399    1.275305   -0.171446   -0.054439   -0.047032    0.002140
H     2.321421    1.045538   -0.037464   -0.045984    0.039057   -0.004656
H    -0.022655   -1.873318   -0.922742    0.167108    0.987645   -0.988754
13
* Frequency(30) 1477.5761
C     1.366719    0.517768   -0.016419    0.002547   -0.047833    0.004057
C     1.282234   -0.781423    0.092756    0.001093    0.021315   -0.001476
N    -0.029441   -1.492001    0.121964   -0.024847   -0.122625    0.010394
C    -1.279951   -0.636853    0.009488    0.029256   -0.042805    0.004972
N    -1.061341    0.719814   -0.098380    0.008391    0.038352   -0.003062
C     0.171236    1.391424   -0.119467    0.009299    0.000141    0.000293
O    -2.342539   -1.201276    0.024142   -0.022823   -0.008604   -0.000005
O     0.191516    2.594963   -0.217251   -0.005884   -0.001408   -0.000029
H     2.121976   -1.471980    0.173177   -0.003048    0.019150   -0.001846
H    -0.074940   -1.620363    1.255110    0.117889    1.155476    0.798275
H    -1.919919    1.273129   -0.171347   -0.054439   -0.047032    0.002140
H     2.319293    1.047346   -0.037680   -0.045984    0.039057   -0.004656
H    -0.014921   -1.827608   -0.968503    0.167108    0.987645   -0.988754
13
* Frequency(30) 1477.5761
C     1.366743    0.517313   -0.016380    0.002547   -0.047833    0.004057
C     1.282244   -0.781220    0.092742    0.001093    0.021315   -0.001476
N    -0.029677   -1.493167    0.122063   -0.024847   -0.122625    0.010394
C    -1.279673   -0.637260    0.009535    0.029256   -0.042805    0.004972
N    -1.061261    0.720179   -0.098409    0.008391    0.038352   -0.003062
C     0.171325    1.391425   -0.119464    0.009299    0.000141    0.000293
O    -2.342756   -1.201358    0.024142   -0.022823   -0.008604   -0.000005
O     0.191460    2.594949   -0.217251   -0.005884   -0.001408   -0.000029
H     2.121947   -1.471798    0.173160   -0.003048    0.019150   -0.001846
H    -0.073818   -1.609369    1.262705    0.117889    1.155476    0.798275
H    -1.920437    1.272681   -0.171326   -0.054439   -0.047032    0.002140
H     2.318855    1.047717   -0.037724   -0.045984    0.039057   -0.004656
H    -0.013331   -1.818211   -0.977911    0.167108    0.987645   -0.988754
13
* Frequency(30) 1477.5761
C     1.366671    0.518666   -0.016495    0.002547   -0.047833    0.004057
C     1.282213   -0.781823    0.092784    0.001093    0.021315   -0.001476
N    -0.028975   -1.489699    0.121769   -0.024847   -0.122625    0.010394
C    -1.280500   -0.636049    0.009395    0.029256   -0.042805    0.004972
N    -1.061498    0.719094   -0.098323    0.008391    0.038352   -0.003062
C     0.171062    1.391421   -0.119472    0.009299    0.000141    0.000293
O    -2.342110   -1.201115    0.024142   -0.022823   -0.008604   -0.000005
O     0.191627    2.594989   -0.217250   -0.005884   -0.001408   -0.000029
H     2.122033   -1.472340    0.173212   -0.003048    0.019150   -0.001846
H    -0.077153   -1.642050    1.240127    0.117889    1.155476    0.798275
H    -1.918897    1.274011   -0.171387   -0.054439   -0.047032    0.002140
H     2.320156    1.046613   -0.037592   -0.045984    0.039057   -0.004656
H    -0.018057   -1.846146   -0.949945    0.167108    0.987645   -0.988754
13
* Frequency(30) 1477.5761
C     1.366511    0.521680   -0.016751    0.002547   -0.047833    0.004057
C     1.282144   -0.783167    0.092877    0.001093    0.021315   -0.001476
N    -0.027409   -1.481971    0.121114   -0.024847   -0.122625    0.010394
C    -1.282344   -0.633352    0.009081    0.029256   -0.042805    0.004972
N    -1.062027    0.716678   -0.098130    0.008391    0.038352   -0.003062
C     0.170476    1.391412   -0.119491    0.009299    0.000141    0.000293
O    -2.340672   -1.200573    0.024142   -0.022823   -0.008604   -0.000005
O     0.191998    2.595078   -0.217249   -0.005884   -0.001408   -0.000029
H     2.122225   -1.473547    0.173328   -0.003048    0.019150   -0.001846
H    -0.084582   -1.714865    1.189822    0.117889    1.155476    0.798275
H    -1.915466    1.276975   -0.171522   -0.054439   -0.047032    0.002140
H     2.323054    1.044151   -0.037299   -0.045984    0.039057   -0.004656
H    -0.028588   -1.908385   -0.887636    0.167108    0.987645   -0.988754
13
* Frequency(30) 1477.5761
C     1.366279    0.526029   -0.017120    0.002547   -0.047833    0.004057
C     1.282045   -0.785105    0.093011    0.001093    0.021315   -0.001476
N    -0.025150   -1.470822    0.120169   -0.024847   -0.122625    0.010394
C    -1.285004   -0.629460    0.008629    0.029256   -0.042805    0.004972
N    -1.062790    0.713190   -0.097851    0.008391    0.038352   -0.003062
C     0.169630    1.391399   -0.119517    0.009299    0.000141    0.000293
O    -2.338597   -1.199790    0.024142   -0.022823   -0.008604   -0.000005
O     0.192533    2.595206   -0.217246   -0.005884   -0.001408   -0.000029
H     2.122502   -1.475288    0.173496   -0.003048    0.019150   -0.001846
H    -0.095300   -1.819923    1.117241    0.117889    1.155476    0.798275
H    -1.910517    1.281251   -0.171716   -0.054439   -0.047032    0.002140
H     2.327235    1.040600   -0.036876   -0.045984    0.039057   -0.004656
H    -0.043782   -1.998183   -0.797737    0.167108    0.987645   -0.988754
13
* Frequency(30) 1477.5761
C     1.366002    0.531242   -0.017562    0.002547   -0.047833    0.004057
C     1.281926   -0.787427    0.093172    0.001093    0.021315   -0.001476
N    -0.022442   -1.457459    0.119036   -0.024847   -0.122625    0.010394
C    -1.288192   -0.624795    0.008088    0.029256   -0.042805    0.004972
N    -1.063704    0.709011   -0.097518    0.008391    0.038352   -0.003062
C     0.168617    1.391384   -0.119549    0.009299    0.000141    0.000293
O    -2.336110   -1.198853    0.024143   -0.022823   -0.008604   -0.000005
O     0.193174    2.595359   -0.217243   -0.005884   -0.001408   -0.000029
H     2.122834   -1.477375    0.173697   -0.003048    0.019150   -0.001846
H    -0.108147   -1.945839    1.030250    0.117889    1.155476    0.798275
H    -1.904584    1.286377   -0.171949   -0.054439   -0.047032    0.002140
H     2.332246    1.036344   -0.036368   -0.045984    0.039057   -0.004656
H    -0.061992   -2.105810   -0.689989    0.167108    0.987645   -0.988754
13
* Frequency(30) 1477.5761
C     1.365708    0.536753   -0.018029    0.002547   -0.047833    0.004057
C     1.281800   -0.789883    0.093342    0.001093    0.021315   -0.001476
N    -0.019579   -1.443331    0.117838   -0.024847   -0.122625    0.010394
C    -1.291563   -0.619864    0.007515    0.029256   -0.042805    0.004972
N    -1.064671    0.704592   -0.097165    0.008391    0.038352   -0.003062
C     0.167545    1.391368   -0.119583    0.009299    0.000141    0.000293
O    -2.333480   -1.197861    0.024143   -0.022823   -0.008604   -0.000005
O     0.193852    2.595521   -0.217240   -0.005884   -0.001408   -0.000029
H     2.123186   -1.479581    0.173910   -0.003048    0.019150   -0.001846
H    -0.121730   -2.078969    0.938276    0.117889    1.155476    0.798275
H    -1.898312    1.291795   -0.172196   -0.054439   -0.047032    0.002140
H     2.337544    1.031844   -0.035832   -0.045984    0.039057   -0.004656
H    -0.081246   -2.219603   -0.576068    0.167108    0.987645   -0.988754
13
* Frequency(30) 1477.5761
C     1.365431    0.541965   -0.018471    0.002547   -0.047833    0.004057
C     1.281681   -0.792206    0.093503    0.001093    0.021315   -0.001476
N    -0.016872   -1.429968    0.116706   -0.024847   -0.122625    0.010394
C    -1.294751   -0.615199    0.006973    0.029256   -0.042805    0.004972
N    -1.065586    0.700413   -0.096831    0.008391    0.038352   -0.003062
C     0.166532    1.391353   -0.119615    0.009299    0.000141    0.000293
O    -2.330993   -1.196924    0.024144   -0.022823   -0.008604   -0.000005
O     0.194493    2.595675   -0.217236   -0.005884   -0.001408   -0.000029
H     2.123518   -1.481668    0.174111   -0.003048    0.019150   -0.001846
H    -0.134577   -2.204885    0.851286    0.117889    1.155476    0.798275
H    -1.892379    1.296921   -0.172429   -0.054439   -0.047032    0.002140
H     2.342555    1.027588   -0.035324   -0.045984    0.039057   -0.004656
H    -0.099456   -2.327230   -0.468320    0.167108    0.987645   -0.988754
13
* Frequency(30) 1477.5761
C     1.365199    0.546315   -0.018840    0.002547   -0.047833    0.004057
C     1.281581   -0.794144    0.093637    0.001093    0.021315   -0.001476
N    -0.014613   -1.418819    0.115761   -0.024847   -0.122625    0.010394
C    -1.297411   -0.611307    0.006521    0.029256   -0.042805    0.004972
N    -1.066348    0.696926   -0.096553    0.008391    0.038352   -0.003062
C     0.165687    1.391340   -0.119642    0.009299    0.000141    0.000293
O    -2.328918   -1.196142    0.024144   -0.022823   -0.008604   -0.000005
O     0.195028    2.595803   -0.217234   -0.005884   -0.001408   -0.000029
H     2.123795   -1.483409    0.174279   -0.003048    0.019150   -0.001846
H    -0.145295   -2.309943    0.778705    0.117889    1.155476    0.798275
H    -1.887430    1.301197   -0.172623   -0.054439   -0.047032    0.002140
H     2.346736    1.024037   -0.034901   -0.045984    0.039057   -0.004656
H    -0.114650   -2.417028   -0.378421    0.167108    0.987645   -0.988754
13
* Frequency(30) 1477.5761
C     1.365039    0.549329   -0.019096    0.002547   -0.047833    0.004057
C     1.281512   -0.795487    0.093730    0.001093    0.021315   -0.001476
N    -0.013047   -1.411091    0.115106   -0.024847   -0.122625    0.010394
C    -1.299255   -0.608610    0.006207    0.029256   -0.042805    0.004972
N    -1.066877    0.694509   -0.096360    0.008391    0.038352   -0.003062
C     0.165101    1.391331   -0.119660    0.009299    0.000141    0.000293
O    -2.327480   -1.195599    0.024145   -0.022823   -0.008604   -0.000005
O     0.195399    2.595891   -0.217232   -0.005884   -0.001408   -0.000029
H     2.123987   -1.484616    0.174395   -0.003048    0.019150   -0.001846
H    -0.152724   -2.382758    0.728400    0.117889    1.155476    0.798275
H    -1.883999    1.304161   -0.172758   -0.054439   -0.047032    0.002140
H     2.349634    1.021576   -0.034608   -0.045984    0.039057   -0.004656
H    -0.125181   -2.479267   -0.316113    0.167108    0.987645   -0.988754
13
* Frequency(30) 1477.5761
C     1.364967    0.550682   -0.019211    0.002547   -0.047833    0.004057
C     1.281482   -0.796090    0.093772    0.001093    0.021315   -0.001476
N    -0.012344   -1.407623    0.114812   -0.024847   -0.122625    0.010394
C    -1.300082   -0.607399    0.006067    0.029256   -0.042805    0.004972
N    -1.067115    0.693424   -0.096273    0.008391    0.038352   -0.003062
C     0.164838    1.391327   -0.119669    0.009299    0.000141    0.000293
O    -2.326834   -1.195356    0.024145   -0.022823   -0.008604   -0.000005
O     0.195565    2.595931   -0.217231   -0.005884   -0.001408   -0.000029
H     2.124073   -1.485157    0.174447   -0.003048    0.019150   -0.001846
H    -0.156059   -2.415439    0.705822    0.117889    1.155476    0.798275
H    -1.882459    1.305491   -0.172819   -0.054439   -0.047032    0.002140
H     2.350934    1.020471   -0.034476   -0.045984    0.039057   -0.004656
H    -0.129907   -2.507202   -0.288147    0.167108    0.987645   -0.988754
13
* Frequency(30) 1477.5761
C     1.364991    0.550227   -0.019172    0.002547   -0.047833    0.004057
C     1.281492   -0.795888    0.093758    0.001093    0.021315   -0.001476
N    -0.012580   -1.408790    0.114911   -0.024847   -0.122625    0.010394
C    -1.299804   -0.607806    0.006114    0.029256   -0.042805    0.004972
N    -1.067035    0.693789   -0.096302    0.008391    0.038352   -0.003062
C     0.164926    1.391328   -0.119666    0.009299    0.000141    0.000293
O    -2.327051   -1.195438    0.024145   -0.022823   -0.008604   -0.000005
O     0.195509    2.595918   -0.217231   -0.005884   -0.001408   -0.000029
H     2.124044   -1.484975    0.174430   -0.003048    0.019150   -0.001846
H    -0.154937   -2.404445    0.713417    0.117889    1.155476    0.798275
H    -1.882977    1.305043   -0.172798   -0.054439   -0.047032    0.002140
H     2.350497    1.020842   -0.034520   -0.045984    0.039057   -0.004656
H    -0.128317   -2.497805   -0.297554    0.167108    0.987645   -0.988754
13
* Frequency(30) 1477.5761
C     1.365109    0.548013   -0.018984    0.002547   -0.047833    0.004057
C     1.281543   -0.794901    0.093689    0.001093    0.021315   -0.001476
N    -0.013730   -1.414465    0.115392   -0.024847   -0.122625    0.010394
C    -1.298450   -0.609787    0.006344    0.029256   -0.042805    0.004972
N    -1.066646    0.695564   -0.096444    0.008391    0.038352   -0.003062
C     0.165356    1.391335   -0.119652    0.009299    0.000141    0.000293
O    -2.328108   -1.195836    0.024145   -0.022823   -0.008604   -0.000005
O     0.195237    2.595853   -0.217233   -0.005884   -0.001408   -0.000029
H     2.123903   -1.484089    0.174344   -0.003048    0.019150   -0.001846
H    -0.149481   -2.350968    0.750362    0.117889    1.155476    0.798275
H    -1.885497    1.302867   -0.172699   -0.054439   -0.047032    0.002140
H     2.348369    1.022650   -0.034736   -0.045984    0.039057   -0.004656
H    -0.120583   -2.452095   -0.343316    0.167108    0.987645   -0.988754
13
* Frequency(30) 1477.5761
C     1.365307    0.544280   -0.018668    0.002547   -0.047833    0.004057
C     1.281628   -0.793238    0.093574    0.001093    0.021315   -0.001476
N    -0.015669   -1.424034    0.116203   -0.024847   -0.122625    0.010394
C    -1.296167   -0.613127    0.006732    0.029256   -0.042805    0.004972
N    -1.065992    0.698557   -0.096683    0.008391    0.038352   -0.003062
C     0.166082    1.391346   -0.119629    0.009299    0.000141    0.000293
O    -2.329889   -1.196508    0.024144   -0.022823   -0.008604   -0.000005
O     0.194778    2.595743   -0.217235   -0.005884   -0.001408   -0.000029
H     2.123665   -1.482594    0.174200   -0.003048    0.019150   -0.001846
H    -0.140282   -2.260802    0.812655    0.117889    1.155476    0.798275
H    -1.889745    1.299197   -0.172532   -0.054439   -0.047032    0.002140
H     2.344780    1.025698   -0.035099   -0.045984    0.039057   -0.004656
H    -0.107543   -2.375025   -0.420472    0.167108    0.987645   -0.988754
13
* Frequency(30) 1477.5761
C     1.365566    0.539433   -0.018256    0.002547   -0.047833    0.004057
C     1.281739   -0.791078    0.093424    0.001093    0.021315   -0.001476
N    -0.018187   -1.436459    0.117256   -0.024847   -0.122625    0.010394
C    -1.293202   -0.617465    0.007236    0.029256   -0.042805    0.004972
N    -1.065141    0.702443   -0.096993    0.008391    0.038352   -0.003062
C     0.167024    1.391360   -0.119600    0.009299    0.000141    0.000293
O    -2.332201   -1.197379    0.024144   -0.022823   -0.008604   -0.000005
O     0.194181    2.595600   -0.217238   -0.005884   -0.001408   -0.000029
H     2.123356   -1.480654    0.174013   -0.003048    0.019150   -0.001846
H    -0.128336   -2.143718    0.893544    0.117889    1.155476    0.798275
H    -1.895261    1.294431   -0.172316   -0.054439   -0.047032    0.002140
H     2.340121    1.029655   -0.035571   -0.045984    0.039057   -0.004656
H    -0.090610   -2.274947   -0.520662    0.167108    0.987645   -0.988754
13
* Frequency(30) 1477.5761
C     1.365855    0.533997   -0.017795    0.002547   -0.047833    0.004057
C     1.281863   -0.788655    0.093257    0.001093    0.021315   -0.001476
N    -0.021011   -1.450395    0.118437   -0.024847   -0.122625    0.010394
C    -1.289878   -0.622329    0.007801    0.029256   -0.042805    0.004972
N    -1.064188    0.706802   -0.097341    0.008391    0.038352   -0.003062
C     0.168081    1.391376   -0.119566    0.009299    0.000141    0.000293
O    -2.334795   -1.198357    0.024143   -0.022823   -0.008604   -0.000005
O     0.193513    2.595440   -0.217241   -0.005884   -0.001408   -0.000029
H     2.123010   -1.478478    0.173803   -0.003048    0.019150   -0.001846
H    -0.114939   -2.012404    0.984263    0.117889    1.155476    0.798275
H    -1.901448    1.289086   -0.172072   -0.054439   -0.047032    0.002140
H     2.334895    1.034094   -0.036100   -0.045984    0.039057   -0.004656
H    -0.071619   -2.162707   -0.633029    0.167108    0.987645   -0.988754
