13
* (null), Energy   -1000.0000000
C     1.365855    0.533997   -0.017795    0.194717   -0.093788    0.012688
C     1.281863   -0.788655    0.093257   -0.235584   -0.098792    0.002223
N    -0.021011   -1.450395    0.118437    0.233664    0.068162    0.000515
C    -1.289878   -0.622329    0.007801    0.103262   -0.216123    0.022614
N    -1.064188    0.706802   -0.097341   -0.023051    0.045434   -0.004485
C     0.168081    1.391376   -0.119566   -0.129398   -0.030092   -0.001378
O    -2.334795   -1.198357    0.024143   -0.078232    0.005151   -0.003018
O     0.193513    2.595440   -0.217241    0.012689    0.069760   -0.005382
H     2.123010   -1.478478    0.173803    0.425858    0.733367   -0.052502
H    -0.114939   -2.012404    0.984263   -0.907981    0.133312   -0.063449
H    -1.901448    1.289086   -0.172072    0.485629    0.775088   -0.052404
H     2.334895    1.034094   -0.036100   -0.189395    0.676750   -0.060182
H    -0.071619   -2.162707   -0.633029   -0.902085    0.142540   -0.013692
13
* Frequency(27) 1365.3497
C     1.387984    0.523339   -0.016354    0.194717   -0.093788    0.012688
C     1.255090   -0.799883    0.093509   -0.235584   -0.098792    0.002223
N     0.005544   -1.442649    0.118496    0.233664    0.068162    0.000515
C    -1.278142   -0.646891    0.010371    0.103262   -0.216123    0.022614
N    -1.066807    0.711965   -0.097851   -0.023051    0.045434   -0.004485
C     0.153376    1.387956   -0.119723   -0.129398   -0.030092   -0.001378
O    -2.343686   -1.197772    0.023800   -0.078232    0.005151   -0.003018
O     0.194955    2.603368   -0.217853    0.012689    0.069760   -0.005382
H     2.171407   -1.395134    0.167837    0.425858    0.733367   -0.052502
H    -0.218126   -1.997254    0.977053   -0.907981    0.133312   -0.063449
H    -1.846259    1.377171   -0.178028    0.485629    0.775088   -0.052404
H     2.313371    1.111003   -0.042939   -0.189395    0.676750   -0.060182
H    -0.174136   -2.146508   -0.634585   -0.902085    0.142540   -0.013692
13
* Frequency(27) 1365.3497
C     1.407714    0.513835   -0.015068    0.194717   -0.093788    0.012688
C     1.231218   -0.809893    0.093735   -0.235584   -0.098792    0.002223
N     0.029221   -1.435742    0.118548    0.233664    0.068162    0.000515
C    -1.267679   -0.668790    0.012663    0.103262   -0.216123    0.022614
N    -1.069143    0.716569   -0.098305   -0.023051    0.045434   -0.004485
C     0.140264    1.384907   -0.119863   -0.129398   -0.030092   -0.001378
O    -2.351613   -1.197250    0.023495   -0.078232    0.005151   -0.003018
O     0.196241    2.610437   -0.218398    0.012689    0.069760   -0.005382
H     2.214559   -1.320823    0.162517    0.425858    0.733367   -0.052502
H    -0.310131   -1.983745    0.970624   -0.907981    0.133312   -0.063449
H    -1.797050    1.455710   -0.183338    0.485629    0.775088   -0.052404
H     2.294180    1.179578   -0.049037   -0.189395    0.676750   -0.060182
H    -0.265544   -2.132064   -0.635972   -0.902085    0.142540   -0.013692
13
* Frequency(27) 1365.3497
C     1.422909    0.506517   -0.014078    0.194717   -0.093788    0.012688
C     1.212835   -0.817602    0.093908   -0.235584   -0.098792    0.002223
N     0.047455   -1.430423    0.118588    0.233664    0.068162    0.000515
C    -1.259621   -0.685655    0.014427    0.103262   -0.216123    0.022614
N    -1.070942    0.720114   -0.098655   -0.023051    0.045434   -0.004485
C     0.130166    1.382559   -0.119970   -0.129398   -0.030092   -0.001378
O    -2.357718   -1.196848    0.023259   -0.078232    0.005151   -0.003018
O     0.197231    2.615880   -0.218818    0.012689    0.069760   -0.005382
H     2.247790   -1.263595    0.158420    0.425858    0.733367   -0.052502
H    -0.380985   -1.973343    0.965672   -0.907981    0.133312   -0.063449
H    -1.759155    1.516193   -0.187427    0.485629    0.775088   -0.052404
H     2.279400    1.232388   -0.053734   -0.189395    0.676750   -0.060182
H    -0.335937   -2.120941   -0.637040   -0.902085    0.142540   -0.013692
13
* Frequency(27) 1365.3497
C     1.431920    0.502176   -0.013490    0.194717   -0.093788    0.012688
C     1.201932   -0.822175    0.094011   -0.235584   -0.098792    0.002223
N     0.058269   -1.427268    0.118612    0.233664    0.068162    0.000515
C    -1.254842   -0.695658    0.015474    0.103262   -0.216123    0.022614
N    -1.072009    0.722217   -0.098863   -0.023051    0.045434   -0.004485
C     0.124178    1.381166   -0.120034   -0.129398   -0.030092   -0.001378
O    -2.361338   -1.196609    0.023119   -0.078232    0.005151   -0.003018
O     0.197818    2.619109   -0.219067    0.012689    0.069760   -0.005382
H     2.267499   -1.229654    0.155990    0.425858    0.733367   -0.052502
H    -0.423008   -1.967173    0.962736   -0.907981    0.133312   -0.063449
H    -1.736679    1.552066   -0.189853    0.485629    0.775088   -0.052404
H     2.270635    1.263709   -0.056519   -0.189395    0.676750   -0.060182
H    -0.377687   -2.114344   -0.637674   -0.902085    0.142540   -0.013692
13
* Frequency(27) 1365.3497
C     1.433773    0.501284   -0.013370    0.194717   -0.093788    0.012688
C     1.199690   -0.823115    0.094032   -0.235584   -0.098792    0.002223
N     0.060493   -1.426620    0.118617    0.233664    0.068162    0.000515
C    -1.253859   -0.697714    0.015689    0.103262   -0.216123    0.022614
N    -1.072228    0.722649   -0.098906   -0.023051    0.045434   -0.004485
C     0.122947    1.380880   -0.120047   -0.129398   -0.030092   -0.001378
O    -2.362083   -1.196560    0.023091   -0.078232    0.005151   -0.003018
O     0.197939    2.619773   -0.219118    0.012689    0.069760   -0.005382
H     2.271551   -1.222676    0.155491    0.425858    0.733367   -0.052502
H    -0.431647   -1.965904    0.962132   -0.907981    0.133312   -0.063449
H    -1.732058    1.559440   -0.190351    0.485629    0.775088   -0.052404
H     2.268833    1.270148   -0.057092   -0.189395    0.676750   -0.060182
H    -0.386270   -2.112988   -0.637804   -0.902085    0.142540   -0.013692
13
* Frequency(27) 1365.3497
C     1.428266    0.503936   -0.013729    0.194717   -0.093788    0.012688
C     1.206353   -0.820320    0.093969   -0.235584   -0.098792    0.002223
N     0.053884   -1.428548    0.118602    0.233664    0.068162    0.000515
C    -1.256780   -0.691601    0.015049    0.103262   -0.216123    0.022614
N    -1.071576    0.721364   -0.098779   -0.023051    0.045434   -0.004485
C     0.126606    1.381731   -0.120008   -0.129398   -0.030092   -0.001378
O    -2.359870   -1.196706    0.023176   -0.078232    0.005151   -0.003018
O     0.197580    2.617800   -0.218966    0.012689    0.069760   -0.005382
H     2.259506   -1.243419    0.156976    0.425858    0.733367   -0.052502
H    -0.405965   -1.969675    0.963927   -0.907981    0.133312   -0.063449
H    -1.745794    1.537518   -0.188869    0.485629    0.775088   -0.052404
H     2.274190    1.251007   -0.055389   -0.189395    0.676750   -0.060182
H    -0.360756   -2.117020   -0.637417   -0.902085    0.142540   -0.013692
13
* Frequency(27) 1365.3497
C     1.415995    0.509847   -0.014528    0.194717   -0.093788    0.012688
C     1.221199   -0.814095    0.093829   -0.235584   -0.098792    0.002223
N     0.039159   -1.432843    0.118570    0.233664    0.068162    0.000515
C    -1.263287   -0.677982    0.013624    0.103262   -0.216123    0.022614
N    -1.070123    0.718501   -0.098496   -0.023051    0.045434   -0.004485
C     0.134761    1.383627   -0.119921   -0.129398   -0.030092   -0.001378
O    -2.354940   -1.197031    0.023366   -0.078232    0.005151   -0.003018
O     0.196780    2.613404   -0.218627    0.012689    0.069760   -0.005382
H     2.232670   -1.289633    0.160284    0.425858    0.733367   -0.052502
H    -0.348747   -1.978076    0.967925   -0.907981    0.133312   -0.063449
H    -1.776397    1.488674   -0.185567    0.485629    0.775088   -0.052404
H     2.286125    1.208360   -0.051597   -0.189395    0.676750   -0.060182
H    -0.303909   -2.126002   -0.636554   -0.902085    0.142540   -0.013692
13
* Frequency(27) 1365.3497
C     1.398291    0.518374   -0.015682    0.194717   -0.093788    0.012688
C     1.242619   -0.805112    0.093627   -0.235584   -0.098792    0.002223
N     0.017914   -1.439041    0.118523    0.233664    0.068162    0.000515
C    -1.272676   -0.658332    0.011568    0.103262   -0.216123    0.022614
N    -1.068028    0.714370   -0.098088   -0.023051    0.045434   -0.004485
C     0.146526    1.386363   -0.119796   -0.129398   -0.030092   -0.001378
O    -2.347827   -1.197499    0.023641   -0.078232    0.005151   -0.003018
O     0.195627    2.607061   -0.218138    0.012689    0.069760   -0.005382
H     2.193950   -1.356312    0.165058    0.425858    0.733367   -0.052502
H    -0.266191   -1.990197    0.973694   -0.907981    0.133312   -0.063449
H    -1.820551    1.418201   -0.180802    0.485629    0.775088   -0.052404
H     2.303345    1.146828   -0.046125   -0.189395    0.676750   -0.060182
H    -0.221890   -2.138962   -0.635309   -0.902085    0.142540   -0.013692
13
* Frequency(27) 1365.3497
C     1.377072    0.528594   -0.017064    0.194717   -0.093788    0.012688
C     1.268291   -0.794347    0.093385   -0.235584   -0.098792    0.002223
N    -0.007550   -1.446468    0.118467    0.233664    0.068162    0.000515
C    -1.283929   -0.634780    0.009104    0.103262   -0.216123    0.022614
N    -1.065516    0.709419   -0.097600   -0.023051    0.045434   -0.004485
C     0.160627    1.389642   -0.119646   -0.129398   -0.030092   -0.001378
O    -2.339302   -1.198060    0.023969   -0.078232    0.005151   -0.003018
O     0.194244    2.599459   -0.217551    0.012689    0.069760   -0.005382
H     2.147543   -1.436230    0.170779    0.425858    0.733367   -0.052502
H    -0.167246   -2.004724    0.980608   -0.907981    0.133312   -0.063449
H    -1.873472    1.333737   -0.175091    0.485629    0.775088   -0.052404
H     2.323984    1.073080   -0.039567   -0.189395    0.676750   -0.060182
H    -0.123586   -2.154495   -0.633817   -0.902085    0.142540   -0.013692
13
* Frequency(27) 1365.3497
C     1.354638    0.539400   -0.018526    0.194717   -0.093788    0.012688
C     1.295434   -0.782964    0.093129   -0.235584   -0.098792    0.002223
N    -0.034472   -1.454322    0.118408    0.233664    0.068162    0.000515
C    -1.295826   -0.609879    0.006498    0.103262   -0.216123    0.022614
N    -1.062860    0.704184   -0.097083   -0.023051    0.045434   -0.004485
C     0.175536    1.393109   -0.119487   -0.129398   -0.030092   -0.001378
O    -2.330288   -1.198654    0.024317   -0.078232    0.005151   -0.003018
O     0.192782    2.591422   -0.216931    0.012689    0.069760   -0.005382
H     2.098477   -1.520726    0.176828    0.425858    0.733367   -0.052502
H    -0.062631   -2.020084    0.987919   -0.907981    0.133312   -0.063449
H    -1.929424    1.244435   -0.169054    0.485629    0.775088   -0.052404
H     2.345805    0.995108   -0.032633   -0.189395    0.676750   -0.060182
H    -0.019652   -2.170918   -0.632240   -0.902085    0.142540   -0.013692
13
* Frequency(27) 1365.3497
C     1.333419    0.549621   -0.019909    0.194717   -0.093788    0.012688
C     1.321107   -0.772198    0.092886   -0.235584   -0.098792    0.002223
N    -0.059935   -1.461750    0.118351    0.233664    0.068162    0.000515
C    -1.307079   -0.586327    0.004034    0.103262   -0.216123    0.022614
N    -1.060348    0.699233   -0.096594   -0.023051    0.045434   -0.004485
C     0.189636    1.396389   -0.119337   -0.129398   -0.030092   -0.001378
O    -2.321763   -1.199215    0.024646   -0.078232    0.005151   -0.003018
O     0.191399    2.583820   -0.216345    0.012689    0.069760   -0.005382
H     2.052070   -1.600643    0.182549    0.425858    0.733367   -0.052502
H     0.036314   -2.034611    0.994833   -0.907981    0.133312   -0.063449
H    -1.982345    1.159971   -0.163343    0.485629    0.775088   -0.052404
H     2.366445    0.921360   -0.026075   -0.189395    0.676750   -0.060182
H     0.078652   -2.186451   -0.630748   -0.902085    0.142540   -0.013692
13
* Frequency(27) 1365.3497
C     1.315715    0.558148   -0.021063    0.194717   -0.093788    0.012688
C     1.342527   -0.763216    0.092684   -0.235584   -0.098792    0.002223
N    -0.081180   -1.467947    0.118305    0.233664    0.068162    0.000515
C    -1.316468   -0.566677    0.001978    0.103262   -0.216123    0.022614
N    -1.058252    0.695102   -0.096186   -0.023051    0.045434   -0.004485
C     0.201402    1.399125   -0.119211   -0.129398   -0.030092   -0.001378
O    -2.314650   -1.199684    0.024920   -0.078232    0.005151   -0.003018
O     0.190245    2.577477   -0.215855    0.012689    0.069760   -0.005382
H     2.013350   -1.667322    0.187323    0.425858    0.733367   -0.052502
H     0.118870   -2.046732    1.000602   -0.907981    0.133312   -0.063449
H    -2.026499    1.089498   -0.158578    0.485629    0.775088   -0.052404
H     2.383665    0.859829   -0.020603   -0.189395    0.676750   -0.060182
H     0.160671   -2.199411   -0.629503   -0.902085    0.142540   -0.013692
13
* Frequency(27) 1365.3497
C     1.303444    0.564058   -0.021862    0.194717   -0.093788    0.012688
C     1.357372   -0.756990    0.092544   -0.235584   -0.098792    0.002223
N    -0.095905   -1.472242    0.118272    0.233664    0.068162    0.000515
C    -1.322975   -0.553057    0.000553    0.103262   -0.216123    0.022614
N    -1.056800    0.692239   -0.095903   -0.023051    0.045434   -0.004485
C     0.209556    1.401021   -0.119125   -0.129398   -0.030092   -0.001378
O    -2.309720   -1.200008    0.025110   -0.078232    0.005151   -0.003018
O     0.189446    2.573081   -0.215516    0.012689    0.069760   -0.005382
H     1.986514   -1.713537    0.190631    0.425858    0.733367   -0.052502
H     0.176088   -2.055133    1.004600   -0.907981    0.133312   -0.063449
H    -2.057102    1.040654   -0.155276    0.485629    0.775088   -0.052404
H     2.395600    0.817182   -0.016811   -0.189395    0.676750   -0.060182
H     0.217518   -2.208393   -0.628640   -0.902085    0.142540   -0.013692
13
* Frequency(27) 1365.3497
C     1.297937    0.566711   -0.022221    0.194717   -0.093788    0.012688
C     1.364036   -0.754196    0.092481   -0.235584   -0.098792    0.002223
N    -0.102514   -1.474170    0.118258    0.233664    0.068162    0.000515
C    -1.325896   -0.546945   -0.000087    0.103262   -0.216123    0.022614
N    -1.056148    0.690954   -0.095777   -0.023051    0.045434   -0.004485
C     0.213216    1.401872   -0.119086   -0.129398   -0.030092   -0.001378
O    -2.307507   -1.200154    0.025196   -0.078232    0.005151   -0.003018
O     0.189087    2.571108   -0.215364    0.012689    0.069760   -0.005382
H     1.974469   -1.734279    0.192116    0.425858    0.733367   -0.052502
H     0.201769   -2.058904    1.006395   -0.907981    0.133312   -0.063449
H    -2.070838    1.018732   -0.153794    0.485629    0.775088   -0.052404
H     2.400957    0.798040   -0.015108   -0.189395    0.676750   -0.060182
H     0.243032   -2.212425   -0.628253   -0.902085    0.142540   -0.013692
13
* Frequency(27) 1365.3497
C     1.299789    0.565819   -0.022100    0.194717   -0.093788    0.012688
C     1.361794   -0.755136    0.092503   -0.235584   -0.098792    0.002223
N    -0.100291   -1.473522    0.118262    0.233664    0.068162    0.000515
C    -1.324913   -0.549001    0.000128    0.103262   -0.216123    0.022614
N    -1.056367    0.691386   -0.095819   -0.023051    0.045434   -0.004485
C     0.211985    1.401586   -0.119099   -0.129398   -0.030092   -0.001378
O    -2.308252   -1.200105    0.025167   -0.078232    0.005151   -0.003018
O     0.189207    2.571771   -0.215415    0.012689    0.069760   -0.005382
H     1.978521   -1.727302    0.191617    0.425858    0.733367   -0.052502
H     0.193130   -2.057635    1.005791   -0.907981    0.133312   -0.063449
H    -2.066217    1.026106   -0.154292    0.485629    0.775088   -0.052404
H     2.399155    0.804479   -0.015681   -0.189395    0.676750   -0.060182
H     0.234449   -2.211069   -0.628383   -0.902085    0.142540   -0.013692
13
* Frequency(27) 1365.3497
C     1.308801    0.561478   -0.021513    0.194717   -0.093788    0.012688
C     1.350891   -0.759708    0.092605   -0.235584   -0.098792    0.002223
N    -0.089476   -1.470367    0.118286    0.233664    0.068162    0.000515
C    -1.320134   -0.559003    0.001175    0.103262   -0.216123    0.022614
N    -1.057434    0.693489   -0.096027   -0.023051    0.045434   -0.004485
C     0.205996    1.400193   -0.119162   -0.129398   -0.030092   -0.001378
O    -2.311872   -1.199866    0.025027   -0.078232    0.005151   -0.003018
O     0.189795    2.575000   -0.215664    0.012689    0.069760   -0.005382
H     1.998230   -1.693360    0.189187    0.425858    0.733367   -0.052502
H     0.151107   -2.051465    1.002854   -0.907981    0.133312   -0.063449
H    -2.043741    1.061979   -0.156718    0.485629    0.775088   -0.052404
H     2.390389    0.835801   -0.018466   -0.189395    0.676750   -0.060182
H     0.192699   -2.204472   -0.629017   -0.902085    0.142540   -0.013692
13
* Frequency(27) 1365.3497
C     1.323996    0.554159   -0.020523    0.194717   -0.093788    0.012688
C     1.332507   -0.767418    0.092779   -0.235584   -0.098792    0.002223
N    -0.071243   -1.465048    0.118327    0.233664    0.068162    0.000515
C    -1.312076   -0.575868    0.002940    0.103262   -0.216123    0.022614
N    -1.059233    0.697035   -0.096377   -0.023051    0.045434   -0.004485
C     0.195898    1.397845   -0.119270   -0.129398   -0.030092   -0.001378
O    -2.317977   -1.199464    0.024792   -0.078232    0.005151   -0.003018
O     0.190785    2.580444   -0.216084    0.012689    0.069760   -0.005382
H     2.031461   -1.636133    0.185090    0.425858    0.733367   -0.052502
H     0.080254   -2.041063    0.997903   -0.907981    0.133312   -0.063449
H    -2.005846    1.122462   -0.160807    0.485629    0.775088   -0.052404
H     2.375610    0.888610   -0.023162   -0.189395    0.676750   -0.060182
H     0.122306   -2.193349   -0.630085   -0.902085    0.142540   -0.013692
13
* Frequency(27) 1365.3497
C     1.343726    0.544656   -0.019237    0.194717   -0.093788    0.012688
C     1.308636   -0.777428    0.093004   -0.235584   -0.098792    0.002223
N    -0.047565   -1.458141    0.118379    0.233664    0.068162    0.000515
C    -1.301613   -0.597768    0.005231    0.103262   -0.216123    0.022614
N    -1.061568    0.701638   -0.096831   -0.023051    0.045434   -0.004485
C     0.182787    1.394796   -0.119410   -0.129398   -0.030092   -0.001378
O    -2.325904   -1.198943    0.024486   -0.078232    0.005151   -0.003018
O     0.192071    2.587512   -0.216630    0.012689    0.069760   -0.005382
H     2.074613   -1.561821    0.179770    0.425858    0.733367   -0.052502
H    -0.011751   -2.027554    0.991474   -0.907981    0.133312   -0.063449
H    -1.956637    1.201001   -0.166117    0.485629    0.775088   -0.052404
H     2.356419    0.957185   -0.029261   -0.189395    0.676750   -0.060182
H     0.030898   -2.178905   -0.631473   -0.902085    0.142540   -0.013692
13
* Frequency(27) 1365.3497
C     1.365855    0.533997   -0.017795    0.194717   -0.093788    0.012688
C     1.281863   -0.788655    0.093257   -0.235584   -0.098792    0.002223
N    -0.021011   -1.450395    0.118437    0.233664    0.068162    0.000515
C    -1.289878   -0.622329    0.007801    0.103262   -0.216123    0.022614
N    -1.064188    0.706802   -0.097341   -0.023051    0.045434   -0.004485
C     0.168081    1.391376   -0.119566   -0.129398   -0.030092   -0.001378
O    -2.334795   -1.198357    0.024143   -0.078232    0.005151   -0.003018
O     0.193513    2.595440   -0.217241    0.012689    0.069760   -0.005382
H     2.123010   -1.478478    0.173803    0.425858    0.733367   -0.052502
H    -0.114939   -2.012404    0.984263   -0.907981    0.133312   -0.063449
H    -1.901448    1.289086   -0.172072    0.485629    0.775088   -0.052404
H     2.334895    1.034094   -0.036100   -0.189395    0.676750   -0.060182
H    -0.071619   -2.162707   -0.633029   -0.902085    0.142540   -0.013692
