13
* (null), Energy   -1000.0000000
C     1.365855    0.533997   -0.017795   -0.002968    0.010294    0.101226
C     1.281863   -0.788655    0.093257    0.000764   -0.006821   -0.109776
N    -0.021011   -1.450395    0.118437   -0.003199    0.009063    0.095250
C    -1.289878   -0.622329    0.007801   -0.007425    0.023455    0.274640
N    -1.064188    0.706802   -0.097341    0.006998   -0.019338   -0.221616
C     0.168081    1.391376   -0.119566    0.003478   -0.015283   -0.153156
O    -2.334795   -1.198357    0.024143    0.004627   -0.009302   -0.121679
O     0.193513    2.595440   -0.217241   -0.000027   -0.001101    0.026681
H     2.123010   -1.478478    0.173803   -0.000338   -0.004699   -0.081604
H    -0.114939   -2.012404    0.984263    0.233184   -0.262530   -0.054909
H    -1.901448    1.289086   -0.172072   -0.053141    0.159113    1.847587
H     2.334895    1.034094   -0.036100   -0.009010    0.030005    0.321910
H    -0.071619   -2.162707   -0.633029   -0.223201    0.247257   -0.114898
13
* Frequency(15)  670.7831
C     1.365518    0.535167   -0.006292   -0.002968    0.010294    0.101226
C     1.281950   -0.789431    0.080781    0.000764   -0.006821   -0.109776
N    -0.021374   -1.449365    0.129262   -0.003199    0.009063    0.095250
C    -1.290721   -0.619664    0.039013   -0.007425    0.023455    0.274640
N    -1.063393    0.704604   -0.122527    0.006998   -0.019338   -0.221616
C     0.168476    1.389639   -0.136972    0.003478   -0.015283   -0.153156
O    -2.334269   -1.199414    0.010315    0.004627   -0.009302   -0.121679
O     0.193510    2.595315   -0.214209   -0.000027   -0.001101    0.026681
H     2.122972   -1.479012    0.164530   -0.000338   -0.004699   -0.081604
H    -0.088438   -2.042239    0.978023    0.233184   -0.262530   -0.054909
H    -1.907487    1.307168    0.037896   -0.053141    0.159113    1.847587
H     2.333871    1.037504    0.000483   -0.009010    0.030005    0.321910
H    -0.096985   -2.134607   -0.646086   -0.223201    0.247257   -0.114898
13
* Frequency(15)  670.7831
C     1.365217    0.536210    0.003966   -0.002968    0.010294    0.101226
C     1.282027   -0.790122    0.069658    0.000764   -0.006821   -0.109776
N    -0.021698   -1.448447    0.138914   -0.003199    0.009063    0.095250
C    -1.291474   -0.617287    0.066842   -0.007425    0.023455    0.274640
N    -1.062684    0.702645   -0.144983    0.006998   -0.019338   -0.221616
C     0.168829    1.388090   -0.152491    0.003478   -0.015283   -0.153156
O    -2.333800   -1.200357   -0.002015    0.004627   -0.009302   -0.121679
O     0.193507    2.595203   -0.211505   -0.000027   -0.001101    0.026681
H     2.122937   -1.479488    0.156261   -0.000338   -0.004699   -0.081604
H    -0.064810   -2.068841    0.972459    0.233184   -0.262530   -0.054909
H    -1.912872    1.323291    0.225112   -0.053141    0.159113    1.847587
H     2.332958    1.040544    0.033102   -0.009010    0.030005    0.321910
H    -0.119601   -2.109553   -0.657729   -0.223201    0.247257   -0.114898
13
* Frequency(15)  670.7831
C     1.364985    0.537013    0.011865   -0.002968    0.010294    0.101226
C     1.282087   -0.790654    0.061092    0.000764   -0.006821   -0.109776
N    -0.021948   -1.447740    0.146346   -0.003199    0.009063    0.095250
C    -1.292053   -0.615457    0.088273   -0.007425    0.023455    0.274640
N    -1.062137    0.701136   -0.162276    0.006998   -0.019338   -0.221616
C     0.169100    1.386898   -0.164442    0.003478   -0.015283   -0.153156
O    -2.333439   -1.201083   -0.011510    0.004627   -0.009302   -0.121679
O     0.193505    2.595118   -0.209423   -0.000027   -0.001101    0.026681
H     2.122911   -1.479855    0.149893   -0.000338   -0.004699   -0.081604
H    -0.046614   -2.089327    0.968175    0.233184   -0.262530   -0.054909
H    -1.917019    1.335708    0.369286   -0.053141    0.159113    1.847587
H     2.332255    1.042886    0.058222   -0.009010    0.030005    0.321910
H    -0.137019   -2.090258   -0.666695   -0.223201    0.247257   -0.114898
13
* Frequency(15)  670.7831
C     1.364848    0.537490    0.016550   -0.002968    0.010294    0.101226
C     1.282122   -0.790970    0.056011    0.000764   -0.006821   -0.109776
N    -0.022096   -1.447320    0.150755   -0.003199    0.009063    0.095250
C    -1.292397   -0.614371    0.100984   -0.007425    0.023455    0.274640
N    -1.061814    0.700241   -0.172533    0.006998   -0.019338   -0.221616
C     0.169261    1.386191   -0.171531    0.003478   -0.015283   -0.153156
O    -2.333225   -1.201513   -0.017141    0.004627   -0.009302   -0.121679
O     0.193504    2.595067   -0.208189   -0.000027   -0.001101    0.026681
H     2.122895   -1.480072    0.146116   -0.000338   -0.004699   -0.081604
H    -0.035821   -2.101478    0.965633    0.233184   -0.262530   -0.054909
H    -1.919478    1.343072    0.454796   -0.053141    0.159113    1.847587
H     2.331838    1.044274    0.073121   -0.009010    0.030005    0.321910
H    -0.147349   -2.078815   -0.672012   -0.223201    0.247257   -0.114898
13
* Frequency(15)  670.7831
C     1.364820    0.537588    0.017513   -0.002968    0.010294    0.101226
C     1.282129   -0.791035    0.054966    0.000764   -0.006821   -0.109776
N    -0.022127   -1.447234    0.151661   -0.003199    0.009063    0.095250
C    -1.292468   -0.614148    0.103597   -0.007425    0.023455    0.274640
N    -1.061747    0.700057   -0.174642    0.006998   -0.019338   -0.221616
C     0.169294    1.386045   -0.172988    0.003478   -0.015283   -0.153156
O    -2.333181   -1.201602   -0.018299    0.004627   -0.009302   -0.121679
O     0.193503    2.595056   -0.207935   -0.000027   -0.001101    0.026681
H     2.122892   -1.480117    0.145340   -0.000338   -0.004699   -0.081604
H    -0.033603   -2.103976    0.965111    0.233184   -0.262530   -0.054909
H    -1.919984    1.344586    0.472374   -0.053141    0.159113    1.847587
H     2.331752    1.044560    0.076184   -0.009010    0.030005    0.321910
H    -0.149472   -2.076462   -0.673106   -0.223201    0.247257   -0.114898
13
* Frequency(15)  670.7831
C     1.364904    0.537297    0.014650   -0.002968    0.010294    0.101226
C     1.282108   -0.790842    0.058071    0.000764   -0.006821   -0.109776
N    -0.022036   -1.447490    0.148967   -0.003199    0.009063    0.095250
C    -1.292258   -0.614811    0.095829   -0.007425    0.023455    0.274640
N    -1.061945    0.700603   -0.168374    0.006998   -0.019338   -0.221616
C     0.169196    1.386477   -0.168656    0.003478   -0.015283   -0.153156
O    -2.333312   -1.201339   -0.014858    0.004627   -0.009302   -0.121679
O     0.193504    2.595087   -0.208689   -0.000027   -0.001101    0.026681
H     2.122902   -1.479984    0.147648   -0.000338   -0.004699   -0.081604
H    -0.040198   -2.096550    0.966664    0.233184   -0.262530   -0.054909
H    -1.918481    1.340085    0.420117   -0.053141    0.159113    1.847587
H     2.332007    1.043711    0.067079   -0.009010    0.030005    0.321910
H    -0.143159   -2.083456   -0.669856   -0.223201    0.247257   -0.114898
13
* Frequency(15)  670.7831
C     1.365091    0.536648    0.008271   -0.002968    0.010294    0.101226
C     1.282060   -0.790412    0.064989    0.000764   -0.006821   -0.109776
N    -0.021835   -1.448061    0.142964   -0.003199    0.009063    0.095250
C    -1.291790   -0.616290    0.078522   -0.007425    0.023455    0.274640
N    -1.062386    0.701822   -0.154408    0.006998   -0.019338   -0.221616
C     0.168977    1.387440   -0.159004    0.003478   -0.015283   -0.153156
O    -2.333603   -1.200752   -0.007190    0.004627   -0.009302   -0.121679
O     0.193506    2.595157   -0.210371   -0.000027   -0.001101    0.026681
H     2.122923   -1.479688    0.152790   -0.000338   -0.004699   -0.081604
H    -0.054893   -2.080006    0.970124    0.233184   -0.262530   -0.054909
H    -1.915132    1.330058    0.303688   -0.053141    0.159113    1.847587
H     2.332575    1.041820    0.046793   -0.009010    0.030005    0.321910
H    -0.129094   -2.099037   -0.662615   -0.223201    0.247257   -0.114898
13
* Frequency(15)  670.7831
C     1.365361    0.535712   -0.000933   -0.002968    0.010294    0.101226
C     1.281990   -0.789792    0.074970    0.000764   -0.006821   -0.109776
N    -0.021544   -1.448885    0.134304   -0.003199    0.009063    0.095250
C    -1.291114   -0.618422    0.053551   -0.007425    0.023455    0.274640
N    -1.063022    0.703580   -0.134258    0.006998   -0.019338   -0.221616
C     0.168661    1.388830   -0.145079    0.003478   -0.015283   -0.153156
O    -2.334024   -1.199907    0.003874    0.004627   -0.009302   -0.121679
O     0.193508    2.595257   -0.212797   -0.000027   -0.001101    0.026681
H     2.122954   -1.479260    0.160210   -0.000338   -0.004699   -0.081604
H    -0.076094   -2.056137    0.975117    0.233184   -0.262530   -0.054909
H    -1.910300    1.315591    0.135702   -0.053141    0.159113    1.847587
H     2.333394    1.039092    0.017524   -0.009010    0.030005    0.321910
H    -0.108800   -2.121518   -0.652169   -0.223201    0.247257   -0.114898
13
* Frequency(15)  670.7831
C     1.365684    0.534590   -0.011964   -0.002968    0.010294    0.101226
C     1.281907   -0.789048    0.086933    0.000764   -0.006821   -0.109776
N    -0.021195   -1.449873    0.123924   -0.003199    0.009063    0.095250
C    -1.290305   -0.620978    0.023623   -0.007425    0.023455    0.274640
N    -1.063785    0.705688   -0.110108    0.006998   -0.019338   -0.221616
C     0.168282    1.390495   -0.128389    0.003478   -0.015283   -0.153156
O    -2.334528   -1.198893    0.017133    0.004627   -0.009302   -0.121679
O     0.193511    2.595377   -0.215704   -0.000027   -0.001101    0.026681
H     2.122991   -1.478748    0.169102   -0.000338   -0.004699   -0.081604
H    -0.101505   -2.027528    0.981100    0.233184   -0.262530   -0.054909
H    -1.904509    1.298252   -0.065636   -0.053141    0.159113    1.847587
H     2.334376    1.035823   -0.017555   -0.009010    0.030005    0.321910
H    -0.084477   -2.148463   -0.639648   -0.223201    0.247257   -0.114898
13
* Frequency(15)  670.7831
C     1.366026    0.533404   -0.023627   -0.002968    0.010294    0.101226
C     1.281819   -0.788262    0.099581    0.000764   -0.006821   -0.109776
N    -0.020826   -1.450917    0.112950   -0.003199    0.009063    0.095250
C    -1.289450   -0.623681   -0.008020   -0.007425    0.023455    0.274640
N    -1.064591    0.707916   -0.084574    0.006998   -0.019338   -0.221616
C     0.167881    1.392256   -0.110743    0.003478   -0.015283   -0.153156
O    -2.335062   -1.197821    0.031153    0.004627   -0.009302   -0.121679
O     0.193514    2.595504   -0.218778   -0.000027   -0.001101    0.026681
H     2.123029   -1.478207    0.178505   -0.000338   -0.004699   -0.081604
H    -0.128372   -1.997280    0.987427    0.233184   -0.262530   -0.054909
H    -1.898387    1.279920   -0.278508   -0.053141    0.159113    1.847587
H     2.335414    1.032365   -0.054645   -0.009010    0.030005    0.321910
H    -0.058761   -2.176951   -0.626410   -0.223201    0.247257   -0.114898
13
* Frequency(15)  670.7831
C     1.366349    0.532283   -0.034658   -0.002968    0.010294    0.101226
C     1.281736   -0.787519    0.111543    0.000764   -0.006821   -0.109776
N    -0.020478   -1.451905    0.102570   -0.003199    0.009063    0.095250
C    -1.288641   -0.626237   -0.037949   -0.007425    0.023455    0.274640
N    -1.065354    0.710023   -0.060424    0.006998   -0.019338   -0.221616
C     0.167502    1.393922   -0.094053    0.003478   -0.015283   -0.153156
O    -2.335566   -1.196808    0.044413    0.004627   -0.009302   -0.121679
O     0.193517    2.595624   -0.221686   -0.000027   -0.001101    0.026681
H     2.123066   -1.477695    0.187397   -0.000338   -0.004699   -0.081604
H    -0.153783   -1.968671    0.993410    0.233184   -0.262530   -0.054909
H    -1.892596    1.262581   -0.479847   -0.053141    0.159113    1.847587
H     2.336396    1.029096   -0.089724   -0.009010    0.030005    0.321910
H    -0.034438   -2.203895   -0.613889   -0.223201    0.247257   -0.114898
13
* Frequency(15)  670.7831
C     1.366619    0.531347   -0.043861   -0.002968    0.010294    0.101226
C     1.281666   -0.786899    0.121524    0.000764   -0.006821   -0.109776
N    -0.020187   -1.452729    0.093910   -0.003199    0.009063    0.095250
C    -1.287965   -0.628369   -0.062920   -0.007425    0.023455    0.274640
N    -1.065990    0.711781   -0.040274    0.006998   -0.019338   -0.221616
C     0.167185    1.395311   -0.080128    0.003478   -0.015283   -0.153156
O    -2.335987   -1.195962    0.055476    0.004627   -0.009302   -0.121679
O     0.193520    2.595724   -0.224112   -0.000027   -0.001101    0.026681
H     2.123097   -1.477268    0.194817   -0.000338   -0.004699   -0.081604
H    -0.174984   -1.944802    0.998403    0.233184   -0.262530   -0.054909
H    -1.887764    1.248114   -0.647832   -0.053141    0.159113    1.847587
H     2.337215    1.026368   -0.118993   -0.009010    0.030005    0.321910
H    -0.014144   -2.226376   -0.603442   -0.223201    0.247257   -0.114898
13
* Frequency(15)  670.7831
C     1.366806    0.530698   -0.050240   -0.002968    0.010294    0.101226
C     1.281618   -0.786469    0.128442    0.000764   -0.006821   -0.109776
N    -0.019985   -1.453300    0.087908   -0.003199    0.009063    0.095250
C    -1.287498   -0.629847   -0.080227   -0.007425    0.023455    0.274640
N    -1.066431    0.713000   -0.026309    0.006998   -0.019338   -0.221616
C     0.166966    1.396274   -0.070477    0.003478   -0.015283   -0.153156
O    -2.336278   -1.195376    0.063144    0.004627   -0.009302   -0.121679
O     0.193522    2.595793   -0.225793   -0.000027   -0.001101    0.026681
H     2.123118   -1.476972    0.199959   -0.000338   -0.004699   -0.081604
H    -0.189679   -1.928258    1.001863    0.233184   -0.262530   -0.054909
H    -1.884415    1.238087   -0.764262   -0.053141    0.159113    1.847587
H     2.337783    1.024477   -0.139279   -0.009010    0.030005    0.321910
H    -0.000079   -2.241958   -0.596202   -0.223201    0.247257   -0.114898
13
* Frequency(15)  670.7831
C     1.366890    0.530407   -0.053104   -0.002968    0.010294    0.101226
C     1.281596   -0.786276    0.131547    0.000764   -0.006821   -0.109776
N    -0.019895   -1.453556    0.085214   -0.003199    0.009063    0.095250
C    -1.287288   -0.630511   -0.087995   -0.007425    0.023455    0.274640
N    -1.066629    0.713547   -0.020040    0.006998   -0.019338   -0.221616
C     0.166868    1.396707   -0.066145    0.003478   -0.015283   -0.153156
O    -2.336409   -1.195113    0.066586    0.004627   -0.009302   -0.121679
O     0.193522    2.595824   -0.226548   -0.000027   -0.001101    0.026681
H     2.123128   -1.476839    0.202267   -0.000338   -0.004699   -0.081604
H    -0.196274   -1.920832    1.003416    0.233184   -0.262530   -0.054909
H    -1.882912    1.233587   -0.816519   -0.053141    0.159113    1.847587
H     2.338038    1.023628   -0.148384   -0.009010    0.030005    0.321910
H     0.006234   -2.248951   -0.592952   -0.223201    0.247257   -0.114898
13
* Frequency(15)  670.7831
C     1.366862    0.530505   -0.052140   -0.002968    0.010294    0.101226
C     1.281604   -0.786341    0.130503    0.000764   -0.006821   -0.109776
N    -0.019925   -1.453470    0.086120   -0.003199    0.009063    0.095250
C    -1.287358   -0.630288   -0.085382   -0.007425    0.023455    0.274640
N    -1.066562    0.713363   -0.022149    0.006998   -0.019338   -0.221616
C     0.166901    1.396561   -0.067602    0.003478   -0.015283   -0.153156
O    -2.336365   -1.195201    0.065428    0.004627   -0.009302   -0.121679
O     0.193522    2.595814   -0.226294   -0.000027   -0.001101    0.026681
H     2.123125   -1.476883    0.201491   -0.000338   -0.004699   -0.081604
H    -0.194056   -1.923330    1.002893    0.233184   -0.262530   -0.054909
H    -1.883418    1.235100   -0.798941   -0.053141    0.159113    1.847587
H     2.337952    1.023914   -0.145321   -0.009010    0.030005    0.321910
H     0.004111   -2.246598   -0.594045   -0.223201    0.247257   -0.114898
13
* Frequency(15)  670.7831
C     1.366724    0.530981   -0.047456   -0.002968    0.010294    0.101226
C     1.281639   -0.786657    0.125422    0.000764   -0.006821   -0.109776
N    -0.020073   -1.453051    0.090528   -0.003199    0.009063    0.095250
C    -1.287702   -0.629202   -0.072671   -0.007425    0.023455    0.274640
N    -1.066238    0.712468   -0.032406    0.006998   -0.019338   -0.221616
C     0.167062    1.395854   -0.074690    0.003478   -0.015283   -0.153156
O    -2.336151   -1.195632    0.059796    0.004627   -0.009302   -0.121679
O     0.193521    2.595763   -0.225059   -0.000027   -0.001101    0.026681
H     2.123109   -1.477101    0.197714   -0.000338   -0.004699   -0.081604
H    -0.183263   -1.935481    1.000352    0.233184   -0.262530   -0.054909
H    -1.885877    1.242464   -0.713431   -0.053141    0.159113    1.847587
H     2.337535    1.025302   -0.130422   -0.009010    0.030005    0.321910
H    -0.006219   -2.235155   -0.599363   -0.223201    0.247257   -0.114898
13
* Frequency(15)  670.7831
C     1.366493    0.531784   -0.039556   -0.002968    0.010294    0.101226
C     1.281699   -0.787189    0.116856    0.000764   -0.006821   -0.109776
N    -0.020323   -1.452343    0.097961   -0.003199    0.009063    0.095250
C    -1.288281   -0.627372   -0.051240   -0.007425    0.023455    0.274640
N    -1.065692    0.710959   -0.049699    0.006998   -0.019338   -0.221616
C     0.167333    1.394661   -0.086642    0.003478   -0.015283   -0.153156
O    -2.335790   -1.196357    0.050301    0.004627   -0.009302   -0.121679
O     0.193519    2.595677   -0.222977   -0.000027   -0.001101    0.026681
H     2.123083   -1.477468    0.191346   -0.000338   -0.004699   -0.081604
H    -0.165067   -1.955967    0.996067    0.233184   -0.262530   -0.054909
H    -1.890024    1.254881   -0.569257   -0.053141    0.159113    1.847587
H     2.336832    1.027644   -0.105302   -0.009010    0.030005    0.321910
H    -0.023637   -2.215860   -0.608329   -0.223201    0.247257   -0.114898
13
* Frequency(15)  670.7831
C     1.366192    0.532828   -0.029299   -0.002968    0.010294    0.101226
C     1.281776   -0.787880    0.105732    0.000764   -0.006821   -0.109776
N    -0.020647   -1.451425    0.107613   -0.003199    0.009063    0.095250
C    -1.289034   -0.624995   -0.023410   -0.007425    0.023455    0.274640
N    -1.064983    0.708999   -0.072156    0.006998   -0.019338   -0.221616
C     0.167686    1.393113   -0.102161    0.003478   -0.015283   -0.153156
O    -2.335321   -1.197300    0.037971    0.004627   -0.009302   -0.121679
O     0.193516    2.595565   -0.220273   -0.000027   -0.001101    0.026681
H     2.123048   -1.477944    0.183077   -0.000338   -0.004699   -0.081604
H    -0.141439   -1.982569    0.990503    0.233184   -0.262530   -0.054909
H    -1.895409    1.271004   -0.382041   -0.053141    0.159113    1.847587
H     2.335919    1.030684   -0.072683   -0.009010    0.030005    0.321910
H    -0.046253   -2.190806   -0.619971   -0.223201    0.247257   -0.114898
13
* Frequency(15)  670.7831
C     1.365855    0.533997   -0.017795   -0.002968    0.010294    0.101226
C     1.281863   -0.788655    0.093257    0.000764   -0.006821   -0.109776
N    -0.021011   -1.450395    0.118437   -0.003199    0.009063    0.095250
C    -1.289878   -0.622329    0.007801   -0.007425    0.023455    0.274640
N    -1.064188    0.706802   -0.097341    0.006998   -0.019338   -0.221616
C     0.168081    1.391376   -0.119566    0.003478   -0.015283   -0.153156
O    -2.334795   -1.198357    0.024143    0.004627   -0.009302   -0.121679
O     0.193513    2.595440   -0.217241   -0.000027   -0.001101    0.026681
H     2.123010   -1.478478    0.173803   -0.000338   -0.004699   -0.081604
H    -0.114939   -2.012404    0.984263    0.233184   -0.262530   -0.054909
H    -1.901448    1.289086   -0.172072   -0.053141    0.159113    1.847587
H     2.334895    1.034094   -0.036100   -0.009010    0.030005    0.321910
H    -0.071619   -2.162707   -0.633029   -0.223201    0.247257   -0.114898
