13
* (null), Energy   -1000.0000000
C     1.653111    0.338806   -0.072409    0.030525    0.763916   -0.170048
C     1.417036   -0.968802    0.212159   -0.267555   -0.835474    0.178158
N     0.169278   -1.530502    0.333752   -0.044305    0.210236   -0.040576
C    -1.013486   -0.875739    0.188129   -0.070944   -0.189688    0.027903
N    -0.831970    0.606548   -0.032497   -0.004842    0.030059   -0.006134
C     0.583167    1.266264   -0.274550    0.019278   -0.060803    0.014372
O    -2.113843   -1.335674    0.228076    0.099358    0.066566   -0.007650
O     0.565830    2.420049   -0.573838    0.022290   -0.060206    0.014684
H     2.239204   -1.673303    0.354845    1.095381    0.518937   -0.112844
H     0.099186   -2.533091    0.514228    0.724370    0.171807   -0.048583
H    -1.444922    0.886451   -0.818414   -0.097126    0.007724    0.061144
H     2.672257    0.711579   -0.172265    0.545999   -0.326523    0.082166
H    -1.242310    1.089691    0.787885   -0.076490    0.025431   -0.044829
13
* Frequency(31) 1669.5148
C     1.656580    0.425622   -0.091734    0.030525    0.763916   -0.170048
C     1.386630   -1.063749    0.232405   -0.267555   -0.835474    0.178158
N     0.164243   -1.506610    0.329141   -0.044305    0.210236   -0.040576
C    -1.021549   -0.897296    0.191300   -0.070944   -0.189688    0.027903
N    -0.832520    0.609964   -0.033194   -0.004842    0.030059   -0.006134
C     0.585358    1.259354   -0.272916    0.019278   -0.060803    0.014372
O    -2.102552   -1.328109    0.227207    0.099358    0.066566   -0.007650
O     0.568363    2.413207   -0.572169    0.022290   -0.060206    0.014684
H     2.363688   -1.614328    0.342021    1.095381    0.518937   -0.112844
H     0.181507   -2.513567    0.508707    0.724370    0.171807   -0.048583
H    -1.455960    0.887328   -0.811465   -0.097126    0.007724    0.061144
H     2.734307    0.674472   -0.162927    0.545999   -0.326523    0.082166
H    -1.251003    1.092581    0.782790   -0.076490    0.025431   -0.044829
13
* Frequency(31) 1669.5148
C     1.659673    0.503029   -0.108965    0.030525    0.763916   -0.170048
C     1.359519   -1.148407    0.250458   -0.267555   -0.835474    0.178158
N     0.159754   -1.485307    0.325029   -0.044305    0.210236   -0.040576
C    -1.028737   -0.916517    0.194128   -0.070944   -0.189688    0.027903
N    -0.833010    0.613010   -0.033815   -0.004842    0.030059   -0.006134
C     0.587311    1.253193   -0.271460    0.019278   -0.060803    0.014372
O    -2.092484   -1.321364    0.226432    0.099358    0.066566   -0.007650
O     0.570622    2.407106   -0.570681    0.022290   -0.060206    0.014684
H     2.474683   -1.561744    0.330586    1.095381    0.518937   -0.112844
H     0.254907   -2.496157    0.503784    0.724370    0.171807   -0.048583
H    -1.465802    0.888111   -0.805270   -0.097126    0.007724    0.061144
H     2.789632    0.641385   -0.154601    0.545999   -0.326523    0.082166
H    -1.258753    1.095158    0.778248   -0.076490    0.025431   -0.044829
13
* Frequency(31) 1669.5148
C     1.662055    0.562640   -0.122234    0.030525    0.763916   -0.170048
C     1.338641   -1.213603    0.264360   -0.267555   -0.835474    0.178158
N     0.156297   -1.468901    0.321863   -0.044305    0.210236   -0.040576
C    -1.034274   -0.931320    0.196305   -0.070944   -0.189688    0.027903
N    -0.833388    0.615356   -0.034294   -0.004842    0.030059   -0.006134
C     0.588816    1.248449   -0.270338    0.019278   -0.060803    0.014372
O    -2.084731   -1.316169    0.225835    0.099358    0.066566   -0.007650
O     0.572361    2.402408   -0.569535    0.022290   -0.060206    0.014684
H     2.560160   -1.521250    0.321780    1.095381    0.518937   -0.112844
H     0.311433   -2.482751    0.499993    0.724370    0.171807   -0.048583
H    -1.473381    0.888714   -0.800498   -0.097126    0.007724    0.061144
H     2.832239    0.615905   -0.148189    0.545999   -0.326523    0.082166
H    -1.264722    1.097142    0.774750   -0.076490    0.025431   -0.044829
13
* Frequency(31) 1669.5148
C     1.663468    0.597996   -0.130104    0.030525    0.763916   -0.170048
C     1.326258   -1.252270    0.272606   -0.267555   -0.835474    0.178158
N     0.154246   -1.459171    0.319985   -0.044305    0.210236   -0.040576
C    -1.037557   -0.940099    0.197597   -0.070944   -0.189688    0.027903
N    -0.833612    0.616747   -0.034578   -0.004842    0.030059   -0.006134
C     0.589708    1.245635   -0.269673    0.019278   -0.060803    0.014372
O    -2.080132   -1.313088    0.225481    0.099358    0.066566   -0.007650
O     0.573393    2.399622   -0.568855    0.022290   -0.060206    0.014684
H     2.610856   -1.497232    0.316558    1.095381    0.518937   -0.112844
H     0.344958   -2.474799    0.497745    0.724370    0.171807   -0.048583
H    -1.477876    0.889071   -0.797668   -0.097126    0.007724    0.061144
H     2.857509    0.600793   -0.144387    0.545999   -0.326523    0.082166
H    -1.268262    1.098319    0.772675   -0.076490    0.025431   -0.044829
13
* Frequency(31) 1669.5148
C     1.663759    0.605264   -0.131722    0.030525    0.763916   -0.170048
C     1.323712   -1.260219    0.274301   -0.267555   -0.835474    0.178158
N     0.153825   -1.457171    0.319599   -0.044305    0.210236   -0.040576
C    -1.038232   -0.941903    0.197862   -0.070944   -0.189688    0.027903
N    -0.833658    0.617033   -0.034636   -0.004842    0.030059   -0.006134
C     0.589891    1.245056   -0.269536    0.019278   -0.060803    0.014372
O    -2.079187   -1.312455    0.225408    0.099358    0.066566   -0.007650
O     0.573605    2.399049   -0.568716    0.022290   -0.060206    0.014684
H     2.621278   -1.492295    0.315484    1.095381    0.518937   -0.112844
H     0.351850   -2.473165    0.497282    0.724370    0.171807   -0.048583
H    -1.478800    0.889145   -0.797087   -0.097126    0.007724    0.061144
H     2.862704    0.597687   -0.143605    0.545999   -0.326523    0.082166
H    -1.268990    1.098561    0.772248   -0.076490    0.025431   -0.044829
13
* Frequency(31) 1669.5148
C     1.662895    0.583657   -0.126912    0.030525    0.763916   -0.170048
C     1.331280   -1.236588    0.269262   -0.267555   -0.835474    0.178158
N     0.155078   -1.463117    0.320746   -0.044305    0.210236   -0.040576
C    -1.036225   -0.936538    0.197073   -0.070944   -0.189688    0.027903
N    -0.833521    0.616183   -0.034463   -0.004842    0.030059   -0.006134
C     0.589346    1.246776   -0.269943    0.019278   -0.060803    0.014372
O    -2.081997   -1.314338    0.225624    0.099358    0.066566   -0.007650
O     0.572974    2.400752   -0.569131    0.022290   -0.060206    0.014684
H     2.590296   -1.506972    0.318676    1.095381    0.518937   -0.112844
H     0.331362   -2.478024    0.498657    0.724370    0.171807   -0.048583
H    -1.476053    0.888926   -0.798816   -0.097126    0.007724    0.061144
H     2.847261    0.606922   -0.145929    0.545999   -0.326523    0.082166
H    -1.266827    1.097842    0.773516   -0.076490    0.025431   -0.044829
13
* Frequency(31) 1669.5148
C     1.660972    0.535517   -0.116196    0.030525    0.763916   -0.170048
C     1.348140   -1.183939    0.258035   -0.267555   -0.835474    0.178158
N     0.157870   -1.476366    0.323303   -0.044305    0.210236   -0.040576
C    -1.031755   -0.924585    0.195315   -0.070944   -0.189688    0.027903
N    -0.833216    0.614289   -0.034076   -0.004842    0.030059   -0.006134
C     0.588131    1.250607   -0.270849    0.019278   -0.060803    0.014372
O    -2.088258   -1.318533    0.226106    0.099358    0.066566   -0.007650
O     0.571570    2.404546   -0.570056    0.022290   -0.060206    0.014684
H     2.521268   -1.539674    0.325787    1.095381    0.518937   -0.112844
H     0.285714   -2.488851    0.501718    0.724370    0.171807   -0.048583
H    -1.469933    0.888440   -0.802669   -0.097126    0.007724    0.061144
H     2.812853    0.627499   -0.151107    0.545999   -0.326523    0.082166
H    -1.262006    1.096239    0.776341   -0.076490    0.025431   -0.044829
13
* Frequency(31) 1669.5148
C     1.658196    0.466061   -0.100735    0.030525    0.763916   -0.170048
C     1.372467   -1.107976    0.241837   -0.267555   -0.835474    0.178158
N     0.161898   -1.495481    0.326993   -0.044305    0.210236   -0.040576
C    -1.025304   -0.907338    0.192778   -0.070944   -0.189688    0.027903
N    -0.832776    0.611556   -0.033519   -0.004842    0.030059   -0.006134
C     0.586378    1.256136   -0.272155    0.019278   -0.060803    0.014372
O    -2.097292   -1.324585    0.226802    0.099358    0.066566   -0.007650
O     0.569543    2.410020   -0.571392    0.022290   -0.060206    0.014684
H     2.421674   -1.586857    0.336047    1.095381    0.518937   -0.112844
H     0.219853   -2.504472    0.506135    0.724370    0.171807   -0.048583
H    -1.461102    0.887737   -0.808228   -0.097126    0.007724    0.061144
H     2.763210    0.657187   -0.158577    0.545999   -0.326523    0.082166
H    -1.255052    1.093927    0.780417   -0.076490    0.025431   -0.044829
13
* Frequency(31) 1669.5148
C     1.654870    0.382814   -0.082205    0.030525    0.763916   -0.170048
C     1.401623   -1.016932    0.222422   -0.267555   -0.835474    0.178158
N     0.166726   -1.518391    0.331414   -0.044305    0.210236   -0.040576
C    -1.017573   -0.886667    0.189737   -0.070944   -0.189688    0.027903
N    -0.832248    0.608280   -0.032850   -0.004842    0.030059   -0.006134
C     0.584278    1.262762   -0.273722    0.019278   -0.060803    0.014372
O    -2.108120   -1.331839    0.227636    0.099358    0.066566   -0.007650
O     0.567114    2.416581   -0.572992    0.022290   -0.060206    0.014684
H     2.302307   -1.643408    0.348344    1.095381    0.518937   -0.112844
H     0.140916   -2.523194    0.511430    0.724370    0.171807   -0.048583
H    -1.450518    0.886896   -0.814892   -0.097126    0.007724    0.061144
H     2.703711    0.692769   -0.167531    0.545999   -0.326523    0.082166
H    -1.246717    1.091156    0.785302   -0.076490    0.025431   -0.044829
13
* Frequency(31) 1669.5148
C     1.651353    0.294799   -0.062612    0.030525    0.763916   -0.170048
C     1.432450   -0.920672    0.201895   -0.267555   -0.835474    0.178158
N     0.171831   -1.542614    0.336089   -0.044305    0.210236   -0.040576
C    -1.009399   -0.864812    0.186522   -0.070944   -0.189688    0.027903
N    -0.831691    0.604817   -0.032143   -0.004842    0.030059   -0.006134
C     0.582057    1.269767   -0.275377    0.019278   -0.060803    0.014372
O    -2.119567   -1.339508    0.228517    0.099358    0.066566   -0.007650
O     0.564546    2.423518   -0.574684    0.022290   -0.060206    0.014684
H     2.176101   -1.703197    0.361345    1.095381    0.518937   -0.112844
H     0.057457   -2.542989    0.517027    0.724370    0.171807   -0.048583
H    -1.439327    0.886006   -0.821936   -0.097126    0.007724    0.061144
H     2.640803    0.730390   -0.176998    0.545999   -0.326523    0.082166
H    -1.237904    1.088225    0.790467   -0.076490    0.025431   -0.044829
13
* Frequency(31) 1669.5148
C     1.648026    0.211552   -0.044082    0.030525    0.763916   -0.170048
C     1.461606   -0.829627    0.182481   -0.267555   -0.835474    0.178158
N     0.176659   -1.565524    0.340511   -0.044305    0.210236   -0.040576
C    -1.001668   -0.844141    0.183481   -0.070944   -0.189688    0.027903
N    -0.831163    0.601541   -0.031475   -0.004842    0.030059   -0.006134
C     0.579956    1.276393   -0.276944    0.019278   -0.060803    0.014372
O    -2.130395   -1.346762    0.229351    0.099358    0.066566   -0.007650
O     0.562117    2.430079   -0.576284    0.022290   -0.060206    0.014684
H     2.056734   -1.759748    0.373642    1.095381    0.518937   -0.112844
H    -0.021480   -2.561711    0.522321    0.724370    0.171807   -0.048583
H    -1.428743    0.885164   -0.828600   -0.097126    0.007724    0.061144
H     2.581303    0.765972   -0.185952    0.545999   -0.326523    0.082166
H    -1.229568    1.085454    0.795352   -0.076490    0.025431   -0.044829
13
* Frequency(31) 1669.5148
C     1.645251    0.142095   -0.028621    0.030525    0.763916   -0.170048
C     1.485933   -0.753665    0.166283   -0.267555   -0.835474    0.178158
N     0.180687   -1.584639    0.344200   -0.044305    0.210236   -0.040576
C    -0.995218   -0.826894    0.180944   -0.070944   -0.189688    0.027903
N    -0.830723    0.598808   -0.030917   -0.004842    0.030059   -0.006134
C     0.578203    1.281922   -0.278250    0.019278   -0.060803    0.014372
O    -2.139428   -1.352815    0.230046    0.099358    0.066566   -0.007650
O     0.560090    2.435553   -0.577619    0.022290   -0.060206    0.014684
H     1.957139   -1.806931    0.383902    1.095381    0.518937   -0.112844
H    -0.087341   -2.577332    0.526739    0.724370    0.171807   -0.048583
H    -1.419912    0.884462   -0.834159   -0.097126    0.007724    0.061144
H     2.531660    0.795660   -0.193422    0.545999   -0.326523    0.082166
H    -1.222614    1.083142    0.799428   -0.076490    0.025431   -0.044829
13
* Frequency(31) 1669.5148
C     1.643327    0.093955   -0.017905    0.030525    0.763916   -0.170048
C     1.502793   -0.701015    0.155056   -0.267555   -0.835474    0.178158
N     0.183479   -1.597888    0.346757   -0.044305    0.210236   -0.040576
C    -0.990747   -0.814940    0.179186   -0.070944   -0.189688    0.027903
N    -0.830418    0.596914   -0.030531   -0.004842    0.030059   -0.006134
C     0.576988    1.285753   -0.279156    0.019278   -0.060803    0.014372
O    -2.145690   -1.357010    0.230528    0.099358    0.066566   -0.007650
O     0.558685    2.439347   -0.578544    0.022290   -0.060206    0.014684
H     1.888112   -1.839633    0.391014    1.095381    0.518937   -0.112844
H    -0.132989   -2.588159    0.529800    0.724370    0.171807   -0.048583
H    -1.413791    0.883975   -0.838012   -0.097126    0.007724    0.061144
H     2.497253    0.816237   -0.198600    0.545999   -0.326523    0.082166
H    -1.217794    1.081539    0.802253   -0.076490    0.025431   -0.044829
13
* Frequency(31) 1669.5148
C     1.642464    0.072349   -0.013095    0.030525    0.763916   -0.170048
C     1.510361   -0.677385    0.150017   -0.267555   -0.835474    0.178158
N     0.184732   -1.603834    0.347905   -0.044305    0.210236   -0.040576
C    -0.988740   -0.809575    0.178397   -0.070944   -0.189688    0.027903
N    -0.830281    0.596064   -0.030357   -0.004842    0.030059   -0.006134
C     0.576443    1.287473   -0.279563    0.019278   -0.060803    0.014372
O    -2.148500   -1.358892    0.230745    0.099358    0.066566   -0.007650
O     0.558055    2.441049   -0.578960    0.022290   -0.060206    0.014684
H     1.857130   -1.854310    0.394205    1.095381    0.518937   -0.112844
H    -0.153477   -2.593018    0.531174    0.724370    0.171807   -0.048583
H    -1.411044    0.883757   -0.839741   -0.097126    0.007724    0.061144
H     2.481810    0.825472   -0.200924    0.545999   -0.326523    0.082166
H    -1.215630    1.080820    0.803521   -0.076490    0.025431   -0.044829
13
* Frequency(31) 1669.5148
C     1.642754    0.079617   -0.014713    0.030525    0.763916   -0.170048
C     1.507815   -0.685334    0.151712   -0.267555   -0.835474    0.178158
N     0.184311   -1.601834    0.347519   -0.044305    0.210236   -0.040576
C    -0.989415   -0.811380    0.178662   -0.070944   -0.189688    0.027903
N    -0.830327    0.596350   -0.030416   -0.004842    0.030059   -0.006134
C     0.576626    1.286894   -0.279426    0.019278   -0.060803    0.014372
O    -2.147555   -1.358259    0.230672    0.099358    0.066566   -0.007650
O     0.558267    2.440477   -0.578820    0.022290   -0.060206    0.014684
H     1.867552   -1.849373    0.393132    1.095381    0.518937   -0.112844
H    -0.146585   -2.591384    0.530712    0.724370    0.171807   -0.048583
H    -1.411968    0.883830   -0.839160   -0.097126    0.007724    0.061144
H     2.487005    0.822365   -0.200143    0.545999   -0.326523    0.082166
H    -1.216358    1.081062    0.803095   -0.076490    0.025431   -0.044829
13
* Frequency(31) 1669.5148
C     1.644167    0.114973   -0.022583    0.030525    0.763916   -0.170048
C     1.495432   -0.724001    0.159957   -0.267555   -0.835474    0.178158
N     0.182260   -1.592103    0.345641   -0.044305    0.210236   -0.040576
C    -0.992699   -0.820159    0.179954   -0.070944   -0.189688    0.027903
N    -0.830551    0.597741   -0.030700   -0.004842    0.030059   -0.006134
C     0.577519    1.284080   -0.278761    0.019278   -0.060803    0.014372
O    -2.142956   -1.355178    0.230318    0.099358    0.066566   -0.007650
O     0.559299    2.437690   -0.578140    0.022290   -0.060206    0.014684
H     1.918248   -1.825355    0.387909    1.095381    0.518937   -0.112844
H    -0.113060   -2.583432    0.528464    0.724370    0.171807   -0.048583
H    -1.416464    0.884187   -0.836330   -0.097126    0.007724    0.061144
H     2.512275    0.807253   -0.196340    0.545999   -0.326523    0.082166
H    -1.219898    1.082239    0.801020   -0.076490    0.025431   -0.044829
13
* Frequency(31) 1669.5148
C     1.646549    0.174584   -0.035853    0.030525    0.763916   -0.170048
C     1.474554   -0.789196    0.173859   -0.267555   -0.835474    0.178158
N     0.178803   -1.575698    0.342475   -0.044305    0.210236   -0.040576
C    -0.998235   -0.834961    0.182131   -0.070944   -0.189688    0.027903
N    -0.830929    0.600086   -0.031178   -0.004842    0.030059   -0.006134
C     0.579023    1.279336   -0.277639    0.019278   -0.060803    0.014372
O    -2.135203   -1.349984    0.229721    0.099358    0.066566   -0.007650
O     0.561038    2.432992   -0.576994    0.022290   -0.060206    0.014684
H     2.003725   -1.784861    0.379103    1.095381    0.518937   -0.112844
H    -0.056535   -2.570025    0.524672    0.724370    0.171807   -0.048583
H    -1.424043    0.884790   -0.831559   -0.097126    0.007724    0.061144
H     2.554881    0.781773   -0.189928    0.545999   -0.326523    0.082166
H    -1.225867    1.084223    0.797522   -0.076490    0.025431   -0.044829
13
* Frequency(31) 1669.5148
C     1.649642    0.251991   -0.053084    0.030525    0.763916   -0.170048
C     1.447443   -0.873855    0.191912   -0.267555   -0.835474    0.178158
N     0.174313   -1.554395    0.338363   -0.044305    0.210236   -0.040576
C    -1.005424   -0.854182    0.184958   -0.070944   -0.189688    0.027903
N    -0.831419    0.603132   -0.031800   -0.004842    0.030059   -0.006134
C     0.580976    1.273174   -0.276183    0.019278   -0.060803    0.014372
O    -2.125135   -1.343239    0.228946    0.099358    0.066566   -0.007650
O     0.563297    2.426891   -0.575506    0.022290   -0.060206    0.014684
H     2.114719   -1.732277    0.367669    1.095381    0.518937   -0.112844
H     0.016866   -2.552616    0.519750    0.724370    0.171807   -0.048583
H    -1.433884    0.885573   -0.825363   -0.097126    0.007724    0.061144
H     2.610207    0.748687   -0.181602    0.545999   -0.326523    0.082166
H    -1.233618    1.086800    0.792979   -0.076490    0.025431   -0.044829
13
* Frequency(31) 1669.5148
C     1.653111    0.338806   -0.072409    0.030525    0.763916   -0.170048
C     1.417036   -0.968802    0.212159   -0.267555   -0.835474    0.178158
N     0.169278   -1.530502    0.333752   -0.044305    0.210236   -0.040576
C    -1.013486   -0.875739    0.188129   -0.070944   -0.189688    0.027903
N    -0.831970    0.606548   -0.032497   -0.004842    0.030059   -0.006134
C     0.583167    1.266264   -0.274550    0.019278   -0.060803    0.014372
O    -2.113843   -1.335674    0.228076    0.099358    0.066566   -0.007650
O     0.565830    2.420049   -0.573838    0.022290   -0.060206    0.014684
H     2.239204   -1.673303    0.354845    1.095381    0.518937   -0.112844
H     0.099186   -2.533091    0.514228    0.724370    0.171807   -0.048583
H    -1.444922    0.886451   -0.818414   -0.097126    0.007724    0.061144
H     2.672257    0.711579   -0.172265    0.545999   -0.326523    0.082166
H    -1.242310    1.089691    0.787885   -0.076490    0.025431   -0.044829
