!B3LYP DEF2-SVP OPT FREQ
* XYZ 0 1
C         -8.23508        1.75252       -0.00446
C         -6.80437        2.18360        0.03487
H         -8.30301        0.65382       -0.15041
H         -8.75566        2.25995       -0.84350
H         -8.73273        2.02013        0.95115
O         -6.52860        3.36373        0.18904
O         -5.82021        1.26961       -0.09983
H         -4.88856        1.53058       -0.07686
*