# avogadro generated ORCA file
# C2H4O2 | Geometry Optimization | revPBE/def2-TZVP
# 
! GOAT B3LYP def2-SVP pal16

* xyz 0 1
   H      1.425512   -0.104692    0.759917
   C      0.919998   -0.195689   -0.199717
   H      1.243492    0.643840   -0.812276
   H      1.199341   -1.127655   -0.675648
   C     -0.564002   -0.152752   -0.007380
   O     -1.348430   -1.014984   -0.326304
   O     -0.955416    1.004508    0.588355
   H     -1.920496    0.947435    0.673043
*


