8
-228.7986824818
H  1.43220844212336917423 -0.10115585288351075510 0.77154767846779470641
C  0.92429398984211652568 -0.19761782426551241509 -0.20089799946660333307
H  1.24742472601740606031 0.65353730775608276371 -0.82063848015440210570
H  1.20473704744913634457 -1.14233478190934056862 -0.68145611067950218054
C  -0.57019392982870686915 -0.15153626072156353710 -0.00599439256063286768
O  -1.35245926396917481860 -1.01037516107394442777 -0.32648401228976015043
O  -0.95914265854570235348 0.99891926226622385077 0.58783213127562383704
H  -1.92686935308844509152 0.95057431083156451734 0.67608118540748218805
