8
Coordinates from ORCA-job AcOH E -228.798675401341
  H           1.43204525140908     -0.10126030986768      0.77159249000214
  C           0.92430026991377     -0.19759828623080     -0.20095617970403
  H           1.24753791825869      0.65361428305991     -0.82054916152691
  H           1.20470609136107     -1.14231921655822     -0.68151380187564
  C          -0.57020929154844     -0.15144453795464     -0.00621730046987
  O          -1.35237944100413     -1.01053560217278     -0.32626945824758
  O          -0.95915179762703      0.99894540391978      0.58770236140544
  H          -1.92685000076301      0.95060926580443      0.67620105041644
