8
-228.7986824786 converged=true
H  1.43198338421027582257 -0.10108428762996726769 0.77159759003284933421
C  0.92429237831065136355 -0.19758901202284540055 -0.20096441429665651279
H  1.24762924851974688067 0.65348597396889729350 -0.82070082206013994508
H  1.20474257557012176534 -1.14239810692993382091 -0.68133423315999963599
C  -0.57023803544359930040 -0.15135023999079691426 -0.00639561060955936601
O  -1.35243293009095033597 -1.01043292866109202244 -0.32640609604907683261
O  -0.95914040472769768186 0.99890152709545965148 0.58783965608245691836
H  -1.92683721634854876470 0.95047807417027796451 0.67635393006012600736
8
-228.7980387806 converged=true
H  1.44507688363697961442 -0.78961901237229048522 0.54795950795180303761
C  0.90849669001086397202 -0.22898110720775657900 -0.23285327204418324043
H  1.52743204816514133171 0.64450807473907334444 -0.48966415289201770111
H  0.77036183859300688681 -0.86070185690357881025 -1.11891657470018568432
C  -0.40530085351646749636 0.25700440989700767958 0.33131482679033386063
O  -0.52581339974416341221 0.94631138462408137535 1.31297038850646852204
O  -1.46383673853765960970 -0.16484083353012779494 -0.39296804938364970905
H  -2.25641746860771119643 0.19632994075358853325 0.04214732577143303488
