8
-228.7986824818 converged=true
H  1.43220844212336917423 -0.10115585288351075510 0.77154767846779470641
C  0.92429398984211652568 -0.19761782426551241509 -0.20089799946660333307
H  1.24742472601740606031 0.65353730775608276371 -0.82063848015440210570
H  1.20473704744913634457 -1.14233478190934056862 -0.68145611067950218054
C  -0.57019392982870686915 -0.15153626072156353710 -0.00599439256063286768
O  -1.35245926396917481860 -1.01037516107394442777 -0.32648401228976015043
O  -0.95914265854570235348 0.99891926226622385077 0.58783213127562383704
H  -1.92686935308844509152 0.95057431083156451734 0.67608118540748218805
8
-228.7980465551 converged=true
H  1.43994513869728746336 -0.80235782830369117846 0.54101076131037462158
C  0.90843272762189353209 -0.22853903810055475887 -0.23337534894114159156
H  1.53174737274233274675 0.64638486013199125679 -0.47439343210967560571
H  0.77121968116642347635 -0.84628435924523282008 -1.12957583669442329644
C  -0.40548805368237311741 0.25378980700876802024 0.33348415367738232229
O  -0.52699089992215686351 0.92685619384696682488 1.32620515271553451875
O  -1.46295739936203772480 -0.15343806563163267520 -0.40056275201357388616
H  -2.25590956726137914501 0.20359943029338256615 0.03719730205552530117
