3
Coordinates from ORCA-job .\H2O_opt_B3LYP E -76.415482465384
  O      -4.000000      0.000000      0.000000
  H      -2.973650      0.000000      0.000000
  H      -3.996500     -0.978550      0.311650
3
Coordinates from ORCA-job .\H2O_opt_B3LYP E -76.424274207144
  O      -3.961845     -0.036535      0.011636
  H      -2.990524      0.020235     -0.006444
  H      -4.017781     -0.962250      0.306459
3
Coordinates from ORCA-job .\H2O_opt_B3LYP E -76.425954334481
  O      -3.936513     -0.060617      0.019306
  H      -2.984609      0.050031     -0.015934
  H      -4.049028     -0.967963      0.308278
3
Coordinates from ORCA-job .\H2O_opt_B3LYP E -76.426055014439
  O      -3.933152     -0.063753      0.020304
  H      -2.978525      0.059045     -0.018805
  H      -4.058472     -0.973842      0.310151
3
Coordinates from ORCA-job .\H2O_opt_B3LYP E -76.426036545721
  O      -3.932796     -0.064109      0.020417
  H      -2.978619      0.059298     -0.018885
  H      -4.058735     -0.973739      0.310118
3
Coordinates from ORCA-job .\H2O_opt_B3LYP E -76.426055403241
  O      -3.932788     -0.064111      0.020418
  H      -2.978622      0.059301     -0.018886
  H      -4.058739     -0.973740      0.310118
