! PBE0 OPT FREQ def2-SVP pal4
* xyz 0 1
   C       -2.08845       -1.63640       -0.00341
   C       -0.80164       -0.85740       -0.03791
   H       -2.88872       -1.04100       -0.45128
   H       -2.34080       -1.87543        1.03226
   H       -1.98265       -2.55764       -0.58227
   C        0.47611       -1.64987        0.01777
   H        0.49734       -2.24930        0.93107
   H        1.33237       -0.96970        0.01951
   H        0.54267       -2.29690       -0.86051
   O       -0.79636        0.37293       -0.06523
*

