11
* (null), Energy   -1000.0000000
C     1.591454    0.406609    0.009810   -0.001052    0.001291   -0.000137
C     1.402862   -0.965542    0.118363   -0.000662    0.000344   -0.000049
N     0.246024   -1.632751    0.142050   -0.001404    0.000277   -0.000063
C    -0.904486   -0.897558    0.049520    0.002689    0.002285   -0.000117
N    -0.754011    0.505509   -0.063362    0.123960   -0.075659    0.009575
C     0.431975    1.252895   -0.092416   -0.000864   -0.003346    0.000248
O    -2.045071   -1.364389    0.057523   -0.000407   -0.000120    0.000001
O     0.390516    2.484935   -0.194533   -0.000110    0.000455   -0.000037
H     2.305441   -1.598210    0.195810    0.003023   -0.002002    0.000242
H    -1.616489    1.037825   -0.130328   -1.697595    1.039087   -0.131293
H     2.582079    0.864994   -0.000426   -0.001561   -0.001753    0.000099
11
* Frequency(32) 3595.0366
C     1.591335    0.406756    0.009795   -0.001052    0.001291   -0.000137
C     1.402787   -0.965503    0.118358   -0.000662    0.000344   -0.000049
N     0.245864   -1.632719    0.142043   -0.001404    0.000277   -0.000063
C    -0.904181   -0.897299    0.049506    0.002689    0.002285   -0.000117
N    -0.739924    0.496911   -0.062274    0.123960   -0.075659    0.009575
C     0.431877    1.252515   -0.092388   -0.000864   -0.003346    0.000248
O    -2.045117   -1.364403    0.057523   -0.000407   -0.000120    0.000001
O     0.390504    2.484987   -0.194537   -0.000110    0.000455   -0.000037
H     2.305784   -1.598438    0.195837    0.003023   -0.002002    0.000242
H    -1.809412    1.155912   -0.145248   -1.697595    1.039087   -0.131293
H     2.581902    0.864794   -0.000415   -0.001561   -0.001753    0.000099
11
* Frequency(32) 3595.0366
C     1.591228    0.406887    0.009781   -0.001052    0.001291   -0.000137
C     1.402720   -0.965468    0.118353   -0.000662    0.000344   -0.000049
N     0.245722   -1.632691    0.142036   -0.001404    0.000277   -0.000063
C    -0.903909   -0.897067    0.049494    0.002689    0.002285   -0.000117
N    -0.727363    0.489244   -0.061303    0.123960   -0.075659    0.009575
C     0.431789    1.252176   -0.092363   -0.000864   -0.003346    0.000248
O    -2.045158   -1.364415    0.057523   -0.000407   -0.000120    0.000001
O     0.390492    2.485033   -0.194541   -0.000110    0.000455   -0.000037
H     2.306091   -1.598640    0.195862    0.003023   -0.002002    0.000242
H    -1.981428    1.261202   -0.158552   -1.697595    1.039087   -0.131293
H     2.581744    0.864617   -0.000405   -0.001561   -0.001753    0.000099
11
* Frequency(32) 3595.0366
C     1.591146    0.406988    0.009770   -0.001052    0.001291   -0.000137
C     1.402668   -0.965441    0.118349   -0.000662    0.000344   -0.000049
N     0.245613   -1.632669    0.142031   -0.001404    0.000277   -0.000063
C    -0.903699   -0.896889    0.049485    0.002689    0.002285   -0.000117
N    -0.717690    0.483340   -0.060556    0.123960   -0.075659    0.009575
C     0.431722    1.251915   -0.092343   -0.000864   -0.003346    0.000248
O    -2.045190   -1.364424    0.057523   -0.000407   -0.000120    0.000001
O     0.390484    2.485068   -0.194544   -0.000110    0.000455   -0.000037
H     2.306327   -1.598797    0.195881    0.003023   -0.002002    0.000242
H    -2.113898    1.342286   -0.168798   -1.697595    1.039087   -0.131293
H     2.581622    0.864480   -0.000397   -0.001561   -0.001753    0.000099
11
* Frequency(32) 3595.0366
C     1.591097    0.407047    0.009764   -0.001052    0.001291   -0.000137
C     1.402638   -0.965425    0.118347   -0.000662    0.000344   -0.000049
N     0.245548   -1.632657    0.142028   -0.001404    0.000277   -0.000063
C    -0.903574   -0.896783    0.049480    0.002689    0.002285   -0.000117
N    -0.711953    0.479839   -0.060113    0.123960   -0.075659    0.009575
C     0.431682    1.251760   -0.092332   -0.000864   -0.003346    0.000248
O    -2.045209   -1.364430    0.057523   -0.000407   -0.000120    0.000001
O     0.390479    2.485089   -0.194546   -0.000110    0.000455   -0.000037
H     2.306467   -1.598889    0.195892    0.003023   -0.002002    0.000242
H    -2.192466    1.390377   -0.174874   -1.697595    1.039087   -0.131293
H     2.581550    0.864399   -0.000392   -0.001561   -0.001753    0.000099
11
* Frequency(32) 3595.0366
C     1.591087    0.407060    0.009763   -0.001052    0.001291   -0.000137
C     1.402631   -0.965422    0.118346   -0.000662    0.000344   -0.000049
N     0.245534   -1.632654    0.142028   -0.001404    0.000277   -0.000063
C    -0.903549   -0.896761    0.049479    0.002689    0.002285   -0.000117
N    -0.710773    0.479119   -0.060022    0.123960   -0.075659    0.009575
C     0.431674    1.251728   -0.092329   -0.000864   -0.003346    0.000248
O    -2.045213   -1.364431    0.057523   -0.000407   -0.000120    0.000001
O     0.390478    2.485094   -0.194546   -0.000110    0.000455   -0.000037
H     2.306495   -1.598908    0.195894    0.003023   -0.002002    0.000242
H    -2.208618    1.400263   -0.176123   -1.697595    1.039087   -0.131293
H     2.581535    0.864382   -0.000391   -0.001561   -0.001753    0.000099
11
* Frequency(32) 3595.0366
C     1.591117    0.407023    0.009767   -0.001052    0.001291   -0.000137
C     1.402650   -0.965431    0.118348   -0.000662    0.000344   -0.000049
N     0.245574   -1.632662    0.142030   -0.001404    0.000277   -0.000063
C    -0.903625   -0.896826    0.049482    0.002689    0.002285   -0.000117
N    -0.714279    0.481259   -0.060293    0.123960   -0.075659    0.009575
C     0.431698    1.251823   -0.092336   -0.000864   -0.003346    0.000248
O    -2.045201   -1.364427    0.057523   -0.000407   -0.000120    0.000001
O     0.390481    2.485081   -0.194545   -0.000110    0.000455   -0.000037
H     2.306410   -1.598852    0.195887    0.003023   -0.002002    0.000242
H    -2.160603    1.370874   -0.172410   -1.697595    1.039087   -0.131293
H     2.581579    0.864432   -0.000394   -0.001561   -0.001753    0.000099
11
* Frequency(32) 3595.0366
C     1.591183    0.406942    0.009775   -0.001052    0.001291   -0.000137
C     1.402692   -0.965453    0.118351   -0.000662    0.000344   -0.000049
N     0.245662   -1.632679    0.142034   -0.001404    0.000277   -0.000063
C    -0.903794   -0.896970    0.049489    0.002689    0.002285   -0.000117
N    -0.722091    0.486027   -0.060896    0.123960   -0.075659    0.009575
C     0.431753    1.252034   -0.092352   -0.000864   -0.003346    0.000248
O    -2.045176   -1.364420    0.057523   -0.000407   -0.000120    0.000001
O     0.390488    2.485052   -0.194543   -0.000110    0.000455   -0.000037
H     2.306219   -1.598725    0.195872    0.003023   -0.002002    0.000242
H    -2.053625    1.305393   -0.164136   -1.697595    1.039087   -0.131293
H     2.581677    0.864542   -0.000400   -0.001561   -0.001753    0.000099
11
* Frequency(32) 3595.0366
C     1.591279    0.406824    0.009788   -0.001052    0.001291   -0.000137
C     1.402752   -0.965484    0.118355   -0.000662    0.000344   -0.000049
N     0.245790   -1.632704    0.142039   -0.001404    0.000277   -0.000063
C    -0.904039   -0.897178    0.049500    0.002689    0.002285   -0.000117
N    -0.733362    0.492906   -0.061767    0.123960   -0.075659    0.009575
C     0.431831    1.252338   -0.092375   -0.000864   -0.003346    0.000248
O    -2.045139   -1.364409    0.057523   -0.000407   -0.000120    0.000001
O     0.390498    2.485011   -0.194539   -0.000110    0.000455   -0.000037
H     2.305945   -1.598543    0.195850    0.003023   -0.002002    0.000242
H    -1.899277    1.210918   -0.152199   -1.697595    1.039087   -0.131293
H     2.581819    0.864702   -0.000409   -0.001561   -0.001753    0.000099
11
* Frequency(32) 3595.0366
C     1.591394    0.406684    0.009803   -0.001052    0.001291   -0.000137
C     1.402824   -0.965522    0.118360   -0.000662    0.000344   -0.000049
N     0.245943   -1.632735    0.142046   -0.001404    0.000277   -0.000063
C    -0.904332   -0.897427    0.049513    0.002689    0.002285   -0.000117
N    -0.746870    0.501151   -0.062810    0.123960   -0.075659    0.009575
C     0.431925    1.252702   -0.092402   -0.000864   -0.003346    0.000248
O    -2.045094   -1.364396    0.057523   -0.000407   -0.000120    0.000001
O     0.390510    2.484961   -0.194535   -0.000110    0.000455   -0.000037
H     2.305615   -1.598325    0.195824    0.003023   -0.002002    0.000242
H    -1.714284    1.097685   -0.137891   -1.697595    1.039087   -0.131293
H     2.581989    0.864893   -0.000420   -0.001561   -0.001753    0.000099
11
* Frequency(32) 3595.0366
C     1.591515    0.406535    0.009818   -0.001052    0.001291   -0.000137
C     1.402900   -0.965562    0.118366   -0.000662    0.000344   -0.000049
N     0.246105   -1.632767    0.142053   -0.001404    0.000277   -0.000063
C    -0.904641   -0.897690    0.049526    0.002689    0.002285   -0.000117
N    -0.761152    0.509868   -0.063913    0.123960   -0.075659    0.009575
C     0.432025    1.253088   -0.092430   -0.000864   -0.003346    0.000248
O    -2.045047   -1.364382    0.057523   -0.000407   -0.000120    0.000001
O     0.390522    2.484909   -0.194531   -0.000110    0.000455   -0.000037
H     2.305267   -1.598095    0.195796    0.003023   -0.002002    0.000242
H    -1.518694    0.977965   -0.122764   -1.697595    1.039087   -0.131293
H     2.582169    0.865095   -0.000432   -0.001561   -0.001753    0.000099
11
* Frequency(32) 3595.0366
C     1.591630    0.406394    0.009833   -0.001052    0.001291   -0.000137
C     1.402972   -0.965599    0.118372   -0.000662    0.000344   -0.000049
N     0.246258   -1.632797    0.142060   -0.001404    0.000277   -0.000063
C    -0.904934   -0.897939    0.049539    0.002689    0.002285   -0.000117
N    -0.774661    0.518113   -0.064957    0.123960   -0.075659    0.009575
C     0.432119    1.253453   -0.092457   -0.000864   -0.003346    0.000248
O    -2.045003   -1.364369    0.057523   -0.000407   -0.000120    0.000001
O     0.390534    2.484859   -0.194527   -0.000110    0.000455   -0.000037
H     2.304937   -1.597877    0.195770    0.003023   -0.002002    0.000242
H    -1.333701    0.864732   -0.108457   -1.697595    1.039087   -0.131293
H     2.582339    0.865286   -0.000442   -0.001561   -0.001753    0.000099
11
* Frequency(32) 3595.0366
C     1.591725    0.406277    0.009846   -0.001052    0.001291   -0.000137
C     1.403032   -0.965630    0.118376   -0.000662    0.000344   -0.000049
N     0.246385   -1.632822    0.142066   -0.001404    0.000277   -0.000063
C    -0.905179   -0.898147    0.049550    0.002689    0.002285   -0.000117
N    -0.785931    0.524992   -0.065827    0.123960   -0.075659    0.009575
C     0.432198    1.253757   -0.092480   -0.000864   -0.003346    0.000248
O    -2.044966   -1.364358    0.057523   -0.000407   -0.000120    0.000001
O     0.390544    2.484818   -0.194524   -0.000110    0.000455   -0.000037
H     2.304663   -1.597695    0.195748    0.003023   -0.002002    0.000242
H    -1.179352    0.770256   -0.096519   -1.697595    1.039087   -0.131293
H     2.582481    0.865445   -0.000451   -0.001561   -0.001753    0.000099
11
* Frequency(32) 3595.0366
C     1.591792    0.406195    0.009854   -0.001052    0.001291   -0.000137
C     1.403074   -0.965652    0.118379   -0.000662    0.000344   -0.000049
N     0.246474   -1.632839    0.142070   -0.001404    0.000277   -0.000063
C    -0.905348   -0.898291    0.049557    0.002689    0.002285   -0.000117
N    -0.793743    0.529760   -0.066431    0.123960   -0.075659    0.009575
C     0.432252    1.253968   -0.092496   -0.000864   -0.003346    0.000248
O    -2.044940   -1.364351    0.057523   -0.000407   -0.000120    0.000001
O     0.390551    2.484789   -0.194521   -0.000110    0.000455   -0.000037
H     2.304472   -1.597568    0.195733    0.003023   -0.002002    0.000242
H    -1.072375    0.704776   -0.088246   -1.697595    1.039087   -0.131293
H     2.582580    0.865555   -0.000458   -0.001561   -0.001753    0.000099
11
* Frequency(32) 3595.0366
C     1.591821    0.406159    0.009858   -0.001052    0.001291   -0.000137
C     1.403093   -0.965662    0.118380   -0.000662    0.000344   -0.000049
N     0.246514   -1.632847    0.142071   -0.001404    0.000277   -0.000063
C    -0.905424   -0.898355    0.049560    0.002689    0.002285   -0.000117
N    -0.797249    0.531900   -0.066702    0.123960   -0.075659    0.009575
C     0.432277    1.254062   -0.092503   -0.000864   -0.003346    0.000248
O    -2.044929   -1.364347    0.057523   -0.000407   -0.000120    0.000001
O     0.390555    2.484776   -0.194520   -0.000110    0.000455   -0.000037
H     2.304387   -1.597512    0.195726    0.003023   -0.002002    0.000242
H    -1.024360    0.675387   -0.084532   -1.697595    1.039087   -0.131293
H     2.582624    0.865605   -0.000460   -0.001561   -0.001753    0.000099
11
* Frequency(32) 3595.0366
C     1.591811    0.406171    0.009857   -0.001052    0.001291   -0.000137
C     1.403086   -0.965659    0.118380   -0.000662    0.000344   -0.000049
N     0.246500   -1.632845    0.142071   -0.001404    0.000277   -0.000063
C    -0.905399   -0.898333    0.049559    0.002689    0.002285   -0.000117
N    -0.796070    0.531180   -0.066611    0.123960   -0.075659    0.009575
C     0.432268    1.254030   -0.092500   -0.000864   -0.003346    0.000248
O    -2.044933   -1.364348    0.057523   -0.000407   -0.000120    0.000001
O     0.390553    2.484780   -0.194521   -0.000110    0.000455   -0.000037
H     2.304415   -1.597531    0.195728    0.003023   -0.002002    0.000242
H    -1.040512    0.685273   -0.085781   -1.697595    1.039087   -0.131293
H     2.582609    0.865588   -0.000459   -0.001561   -0.001753    0.000099
11
* Frequency(32) 3595.0366
C     1.591763    0.406231    0.009851   -0.001052    0.001291   -0.000137
C     1.403056   -0.965643    0.118378   -0.000662    0.000344   -0.000049
N     0.246435   -1.632832    0.142068   -0.001404    0.000277   -0.000063
C    -0.905274   -0.898228    0.049554    0.002689    0.002285   -0.000117
N    -0.790333    0.527678   -0.066167    0.123960   -0.075659    0.009575
C     0.432228    1.253876   -0.092489   -0.000864   -0.003346    0.000248
O    -2.044951   -1.364354    0.057523   -0.000407   -0.000120    0.000001
O     0.390548    2.484801   -0.194522   -0.000110    0.000455   -0.000037
H     2.304555   -1.597623    0.195739    0.003023   -0.002002    0.000242
H    -1.119079    0.733364   -0.091858   -1.697595    1.039087   -0.131293
H     2.582537    0.865507   -0.000455   -0.001561   -0.001753    0.000099
11
* Frequency(32) 3595.0366
C     1.591681    0.406332    0.009840   -0.001052    0.001291   -0.000137
C     1.403004   -0.965616    0.118374   -0.000662    0.000344   -0.000049
N     0.246326   -1.632810    0.142063   -0.001404    0.000277   -0.000063
C    -0.905064   -0.898049    0.049545    0.002689    0.002285   -0.000117
N    -0.780660    0.521774   -0.065420    0.123960   -0.075659    0.009575
C     0.432161    1.253614   -0.092469   -0.000864   -0.003346    0.000248
O    -2.044983   -1.364363    0.057523   -0.000407   -0.000120    0.000001
O     0.390540    2.484837   -0.194525   -0.000110    0.000455   -0.000037
H     2.304791   -1.597780    0.195758    0.003023   -0.002002    0.000242
H    -1.251549    0.814448   -0.102103   -1.697595    1.039087   -0.131293
H     2.582415    0.865370   -0.000447   -0.001561   -0.001753    0.000099
11
* Frequency(32) 3595.0366
C     1.591574    0.406463    0.009826   -0.001052    0.001291   -0.000137
C     1.402937   -0.965581    0.118369   -0.000662    0.000344   -0.000049
N     0.246183   -1.632782    0.142057   -0.001404    0.000277   -0.000063
C    -0.904792   -0.897818    0.049533    0.002689    0.002285   -0.000117
N    -0.768099    0.514107   -0.064450    0.123960   -0.075659    0.009575
C     0.432073    1.253275   -0.092444   -0.000864   -0.003346    0.000248
O    -2.045025   -1.364375    0.057523   -0.000407   -0.000120    0.000001
O     0.390529    2.484883   -0.194529   -0.000110    0.000455   -0.000037
H     2.305097   -1.597983    0.195783    0.003023   -0.002002    0.000242
H    -1.423566    0.919738   -0.115407   -1.697595    1.039087   -0.131293
H     2.582257    0.865193   -0.000437   -0.001561   -0.001753    0.000099
11
* Frequency(32) 3595.0366
C     1.591454    0.406609    0.009810   -0.001052    0.001291   -0.000137
C     1.402862   -0.965542    0.118363   -0.000662    0.000344   -0.000049
N     0.246024   -1.632751    0.142050   -0.001404    0.000277   -0.000063
C    -0.904486   -0.897558    0.049520    0.002689    0.002285   -0.000117
N    -0.754011    0.505509   -0.063362    0.123960   -0.075659    0.009575
C     0.431975    1.252895   -0.092416   -0.000864   -0.003346    0.000248
O    -2.045071   -1.364389    0.057523   -0.000407   -0.000120    0.000001
O     0.390516    2.484935   -0.194533   -0.000110    0.000455   -0.000037
H     2.305441   -1.598210    0.195810    0.003023   -0.002002    0.000242
H    -1.616489    1.037825   -0.130328   -1.697595    1.039087   -0.131293
H     2.582079    0.864994   -0.000426   -0.001561   -0.001753    0.000099
