11
* (null), Energy   -1000.0000000
C     1.357708    0.575724   -0.019982    0.001035   -0.001288    0.000135
C     1.169529   -0.796569    0.088269    0.000661   -0.000349    0.000048
N     0.012816   -1.463992    0.112098    0.001407   -0.000277    0.000062
C    -1.137586   -0.728374    0.019659   -0.002701   -0.002293    0.000120
N    -0.987337    0.674496   -0.092673   -0.123908    0.075661   -0.009844
C     0.198487    1.422060   -0.121503    0.000872    0.003333   -0.000244
O    -2.278352   -1.195100    0.027552    0.000401    0.000122    0.000001
O     0.157268    2.653978   -0.224886    0.000102   -0.000446    0.000039
H     2.071990   -1.429182    0.165269   -0.003067    0.002034   -0.000249
H    -1.849786    1.206815   -0.161518    1.697308   -1.039093    0.134933
H     2.348454    1.034025   -0.030636    0.001607    0.001783   -0.000100
11
* Frequency(32) 3595.2527
C     1.357825    0.575578   -0.019966    0.001035   -0.001288    0.000135
C     1.169604   -0.796609    0.088275    0.000661   -0.000349    0.000048
N     0.012976   -1.464024    0.112105    0.001407   -0.000277    0.000062
C    -1.137893   -0.728635    0.019672   -0.002701   -0.002293    0.000120
N    -1.001419    0.683095   -0.093791   -0.123908    0.075661   -0.009844
C     0.198586    1.422439   -0.121530    0.000872    0.003333   -0.000244
O    -2.278307   -1.195086    0.027552    0.000401    0.000122    0.000001
O     0.157279    2.653927   -0.224881    0.000102   -0.000446    0.000039
H     2.071642   -1.428951    0.165241   -0.003067    0.002034   -0.000249
H    -1.656895    1.088727   -0.146184    1.697308   -1.039093    0.134933
H     2.348637    1.034227   -0.030647    0.001607    0.001783   -0.000100
11
* Frequency(32) 3595.2527
C     1.357930    0.575447   -0.019953    0.001035   -0.001288    0.000135
C     1.169671   -0.796644    0.088279    0.000661   -0.000349    0.000048
N     0.013119   -1.464052    0.112111    0.001407   -0.000277    0.000062
C    -1.138166   -0.728867    0.019685   -0.002701   -0.002293    0.000120
N    -1.013975    0.690761   -0.094789   -0.123908    0.075661   -0.009844
C     0.198674    1.422777   -0.121555    0.000872    0.003333   -0.000244
O    -2.278266   -1.195074    0.027552    0.000401    0.000122    0.000001
O     0.157289    2.653882   -0.224877    0.000102   -0.000446    0.000039
H     2.071331   -1.428745    0.165216   -0.003067    0.002034   -0.000249
H    -1.484908    0.983436   -0.132511    1.697308   -1.039093    0.134933
H     2.348800    1.034408   -0.030658    0.001607    0.001783   -0.000100
11
* Frequency(32) 3595.2527
C     1.358011    0.575347   -0.019942    0.001035   -0.001288    0.000135
C     1.169723   -0.796672    0.088283    0.000661   -0.000349    0.000048
N     0.013228   -1.464074    0.112116    0.001407   -0.000277    0.000062
C    -1.138377   -0.729046    0.019694   -0.002701   -0.002293    0.000120
N    -1.023644    0.696666   -0.095557   -0.123908    0.075661   -0.009844
C     0.198742    1.423037   -0.121574    0.000872    0.003333   -0.000244
O    -2.278235   -1.195064    0.027552    0.000401    0.000122    0.000001
O     0.157297    2.653847   -0.224874    0.000102   -0.000446    0.000039
H     2.071092   -1.428586    0.165196   -0.003067    0.002034   -0.000249
H    -1.352460    0.902352   -0.121982    1.697308   -1.039093    0.134933
H     2.348925    1.034547   -0.030665    0.001607    0.001783   -0.000100
11
* Frequency(32) 3595.2527
C     1.358059    0.575287   -0.019936    0.001035   -0.001288    0.000135
C     1.169753   -0.796688    0.088285    0.000661   -0.000349    0.000048
N     0.013294   -1.464086    0.112119    0.001407   -0.000277    0.000062
C    -1.138502   -0.729152    0.019699   -0.002701   -0.002293    0.000120
N    -1.029378    0.700167   -0.096013   -0.123908    0.075661   -0.009844
C     0.198783    1.423191   -0.121585    0.000872    0.003333   -0.000244
O    -2.278216   -1.195059    0.027552    0.000401    0.000122    0.000001
O     0.157302    2.653827   -0.224872    0.000102   -0.000446    0.000039
H     2.070950   -1.428492    0.165185   -0.003067    0.002034   -0.000249
H    -1.273906    0.854260   -0.115737    1.697308   -1.039093    0.134933
H     2.348999    1.034629   -0.030670    0.001607    0.001783   -0.000100
11
* Frequency(32) 3595.2527
C     1.358069    0.575275   -0.019935    0.001035   -0.001288    0.000135
C     1.169759   -0.796691    0.088286    0.000661   -0.000349    0.000048
N     0.013307   -1.464089    0.112120    0.001407   -0.000277    0.000062
C    -1.138528   -0.729174    0.019701   -0.002701   -0.002293    0.000120
N    -1.030557    0.700887   -0.096106   -0.123908    0.075661   -0.009844
C     0.198791    1.423223   -0.121588    0.000872    0.003333   -0.000244
O    -2.278212   -1.195057    0.027552    0.000401    0.000122    0.000001
O     0.157303    2.653822   -0.224872    0.000102   -0.000446    0.000039
H     2.070921   -1.428472    0.165183   -0.003067    0.002034   -0.000249
H    -1.257757    0.844374   -0.114453    1.697308   -1.039093    0.134933
H     2.349015    1.034646   -0.030671    0.001607    0.001783   -0.000100
11
* Frequency(32) 3595.2527
C     1.358039    0.575312   -0.019938    0.001035   -0.001288    0.000135
C     1.169741   -0.796681    0.088285    0.000661   -0.000349    0.000048
N     0.013267   -1.464081    0.112118    0.001407   -0.000277    0.000062
C    -1.138452   -0.729109    0.019697   -0.002701   -0.002293    0.000120
N    -1.027053    0.698747   -0.095828   -0.123908    0.075661   -0.009844
C     0.198766    1.423129   -0.121581    0.000872    0.003333   -0.000244
O    -2.278224   -1.195061    0.027552    0.000401    0.000122    0.000001
O     0.157300    2.653835   -0.224873    0.000102   -0.000446    0.000039
H     2.071007   -1.428530    0.165190   -0.003067    0.002034   -0.000249
H    -1.305763    0.873764   -0.118270    1.697308   -1.039093    0.134933
H     2.348969    1.034596   -0.030668    0.001607    0.001783   -0.000100
11
* Frequency(32) 3595.2527
C     1.357974    0.575393   -0.019947    0.001035   -0.001288    0.000135
C     1.169699   -0.796659    0.088282    0.000661   -0.000349    0.000048
N     0.013178   -1.464064    0.112114    0.001407   -0.000277    0.000062
C    -1.138281   -0.728965    0.019690   -0.002701   -0.002293    0.000120
N    -1.019244    0.693979   -0.095208   -0.123908    0.075661   -0.009844
C     0.198711    1.422919   -0.121565    0.000872    0.003333   -0.000244
O    -2.278249   -1.195069    0.027552    0.000401    0.000122    0.000001
O     0.157294    2.653863   -0.224876    0.000102   -0.000446    0.000039
H     2.071201   -1.428658    0.165205   -0.003067    0.002034   -0.000249
H    -1.412723    0.939245   -0.126773    1.697308   -1.039093    0.134933
H     2.348868    1.034484   -0.030662    0.001607    0.001783   -0.000100
11
* Frequency(32) 3595.2527
C     1.357880    0.575510   -0.019959    0.001035   -0.001288    0.000135
C     1.169639   -0.796627    0.088277    0.000661   -0.000349    0.000048
N     0.013050   -1.464038    0.112108    0.001407   -0.000277    0.000062
C    -1.138036   -0.728756    0.019679   -0.002701   -0.002293    0.000120
N    -1.007978    0.687100   -0.094313   -0.123908    0.075661   -0.009844
C     0.198632    1.422616   -0.121543    0.000872    0.003333   -0.000244
O    -2.278286   -1.195080    0.027552    0.000401    0.000122    0.000001
O     0.157285    2.653904   -0.224879    0.000102   -0.000446    0.000039
H     2.071480   -1.428843    0.165228   -0.003067    0.002034   -0.000249
H    -1.567045    1.033721   -0.139041    1.697308   -1.039093    0.134933
H     2.348722    1.034322   -0.030653    0.001607    0.001783   -0.000100
11
* Frequency(32) 3595.2527
C     1.357767    0.575650   -0.019974    0.001035   -0.001288    0.000135
C     1.169567   -0.796589    0.088272    0.000661   -0.000349    0.000048
N     0.012897   -1.464008    0.112102    0.001407   -0.000277    0.000062
C    -1.137742   -0.728506    0.019666   -0.002701   -0.002293    0.000120
N    -0.994475    0.678855   -0.093240   -0.123908    0.075661   -0.009844
C     0.198537    1.422252   -0.121517    0.000872    0.003333   -0.000244
O    -2.278329   -1.195093    0.027552    0.000401    0.000122    0.000001
O     0.157273    2.653952   -0.224883    0.000102   -0.000446    0.000039
H     2.071814   -1.429065    0.165255   -0.003067    0.002034   -0.000249
H    -1.752007    1.146954   -0.153745    1.697308   -1.039093    0.134933
H     2.348547    1.034127   -0.030642    0.001607    0.001783   -0.000100
11
* Frequency(32) 3595.2527
C     1.357648    0.575798   -0.019989    0.001035   -0.001288    0.000135
C     1.169491   -0.796549    0.088266    0.000661   -0.000349    0.000048
N     0.012735   -1.463976    0.112094    0.001407   -0.000277    0.000062
C    -1.137430   -0.728242    0.019652   -0.002701   -0.002293    0.000120
N    -0.980199    0.670137   -0.092106   -0.123908    0.075661   -0.009844
C     0.198436    1.421868   -0.121489    0.000872    0.003333   -0.000244
O    -2.278376   -1.195107    0.027552    0.000401    0.000122    0.000001
O     0.157262    2.654004   -0.224888    0.000102   -0.000446    0.000039
H     2.072167   -1.429299    0.165284   -0.003067    0.002034   -0.000249
H    -1.947564    1.266675   -0.169292    1.697308   -1.039093    0.134933
H     2.348361    1.033922   -0.030630    0.001607    0.001783   -0.000100
11
* Frequency(32) 3595.2527
C     1.357535    0.575939   -0.020004    0.001035   -0.001288    0.000135
C     1.169419   -0.796511    0.088261    0.000661   -0.000349    0.000048
N     0.012582   -1.463946    0.112088    0.001407   -0.000277    0.000062
C    -1.137136   -0.727992    0.019639   -0.002701   -0.002293    0.000120
N    -0.966697    0.661892   -0.091033   -0.123908    0.075661   -0.009844
C     0.198341    1.421505   -0.121462    0.000872    0.003333   -0.000244
O    -2.278419   -1.195121    0.027552    0.000401    0.000122    0.000001
O     0.157251    2.654052   -0.224892    0.000102   -0.000446    0.000039
H     2.072501   -1.429521    0.165311   -0.003067    0.002034   -0.000249
H    -2.132526    1.379908   -0.183996    1.697308   -1.039093    0.134933
H     2.348186    1.033728   -0.030619    0.001607    0.001783   -0.000100
11
* Frequency(32) 3595.2527
C     1.357441    0.576056   -0.020016    0.001035   -0.001288    0.000135
C     1.169359   -0.796479    0.088257    0.000661   -0.000349    0.000048
N     0.012454   -1.463921    0.112082    0.001407   -0.000277    0.000062
C    -1.136891   -0.727784    0.019628   -0.002701   -0.002293    0.000120
N    -0.955431    0.655013   -0.090138   -0.123908    0.075661   -0.009844
C     0.198262    1.421202   -0.121440    0.000872    0.003333   -0.000244
O    -2.278456   -1.195132    0.027552    0.000401    0.000122    0.000001
O     0.157241    2.654093   -0.224896    0.000102   -0.000446    0.000039
H     2.072780   -1.429706    0.165334   -0.003067    0.002034   -0.000249
H    -2.286848    1.474385   -0.196264    1.697308   -1.039093    0.134933
H     2.348040    1.033566   -0.030610    0.001607    0.001783   -0.000100
11
* Frequency(32) 3595.2527
C     1.357376    0.576137   -0.020025    0.001035   -0.001288    0.000135
C     1.169317   -0.796458    0.088254    0.000661   -0.000349    0.000048
N     0.012365   -1.463904    0.112078    0.001407   -0.000277    0.000062
C    -1.136720   -0.727639    0.019620   -0.002701   -0.002293    0.000120
N    -0.947622    0.650245   -0.089518   -0.123908    0.075661   -0.009844
C     0.198207    1.420992   -0.121425    0.000872    0.003333   -0.000244
O    -2.278481   -1.195139    0.027551    0.000401    0.000122    0.000001
O     0.157235    2.654121   -0.224898    0.000102   -0.000446    0.000039
H     2.072974   -1.429834    0.165349   -0.003067    0.002034   -0.000249
H    -2.393808    1.539865   -0.204767    1.697308   -1.039093    0.134933
H     2.347939    1.033453   -0.030604    0.001607    0.001783   -0.000100
11
* Frequency(32) 3595.2527
C     1.357347    0.576173   -0.020029    0.001035   -0.001288    0.000135
C     1.169298   -0.796448    0.088252    0.000661   -0.000349    0.000048
N     0.012325   -1.463896    0.112076    0.001407   -0.000277    0.000062
C    -1.136644   -0.727574    0.019617   -0.002701   -0.002293    0.000120
N    -0.944118    0.648105   -0.089239   -0.123908    0.075661   -0.009844
C     0.198182    1.420898   -0.121418    0.000872    0.003333   -0.000244
O    -2.278492   -1.195143    0.027551    0.000401    0.000122    0.000001
O     0.157232    2.654134   -0.224899    0.000102   -0.000446    0.000039
H     2.073060   -1.429891    0.165356   -0.003067    0.002034   -0.000249
H    -2.441814    1.569255   -0.208584    1.697308   -1.039093    0.134933
H     2.347893    1.033403   -0.030601    0.001607    0.001783   -0.000100
11
* Frequency(32) 3595.2527
C     1.357357    0.576161   -0.020027    0.001035   -0.001288    0.000135
C     1.169304   -0.796451    0.088253    0.000661   -0.000349    0.000048
N     0.012339   -1.463898    0.112077    0.001407   -0.000277    0.000062
C    -1.136670   -0.727596    0.019618   -0.002701   -0.002293    0.000120
N    -0.945296    0.648825   -0.089333   -0.123908    0.075661   -0.009844
C     0.198191    1.420930   -0.121420    0.000872    0.003333   -0.000244
O    -2.278489   -1.195142    0.027551    0.000401    0.000122    0.000001
O     0.157233    2.654129   -0.224899    0.000102   -0.000446    0.000039
H     2.073031   -1.429872    0.165354   -0.003067    0.002034   -0.000249
H    -2.425665    1.559369   -0.207300    1.697308   -1.039093    0.134933
H     2.347909    1.033420   -0.030602    0.001607    0.001783   -0.000100
11
* Frequency(32) 3595.2527
C     1.357405    0.576102   -0.020021    0.001035   -0.001288    0.000135
C     1.169335   -0.796467    0.088255    0.000661   -0.000349    0.000048
N     0.012404   -1.463911    0.112080    0.001407   -0.000277    0.000062
C    -1.136795   -0.727702    0.019624   -0.002701   -0.002293    0.000120
N    -0.951031    0.652327   -0.089788   -0.123908    0.075661   -0.009844
C     0.198231    1.421084   -0.121431    0.000872    0.003333   -0.000244
O    -2.278470   -1.195136    0.027551    0.000401    0.000122    0.000001
O     0.157238    2.654109   -0.224897    0.000102   -0.000446    0.000039
H     2.072889   -1.429778    0.165342   -0.003067    0.002034   -0.000249
H    -2.347111    1.511277   -0.201055    1.697308   -1.039093    0.134933
H     2.347983    1.033502   -0.030607    0.001607    0.001783   -0.000100
11
* Frequency(32) 3595.2527
C     1.357485    0.576001   -0.020011    0.001035   -0.001288    0.000135
C     1.169387   -0.796494    0.088259    0.000661   -0.000349    0.000048
N     0.012514   -1.463933    0.112085    0.001407   -0.000277    0.000062
C    -1.137005   -0.727881    0.019633   -0.002701   -0.002293    0.000120
N    -0.960700    0.658231   -0.090557   -0.123908    0.075661   -0.009844
C     0.198299    1.421344   -0.121450    0.000872    0.003333   -0.000244
O    -2.278439   -1.195127    0.027552    0.000401    0.000122    0.000001
O     0.157246    2.654074   -0.224894    0.000102   -0.000446    0.000039
H     2.072650   -1.429619    0.165323   -0.003067    0.002034   -0.000249
H    -2.214663    1.430193   -0.190525    1.697308   -1.039093    0.134933
H     2.348108    1.033641   -0.030615    0.001607    0.001783   -0.000100
11
* Frequency(32) 3595.2527
C     1.357590    0.575871   -0.019997    0.001035   -0.001288    0.000135
C     1.169454   -0.796530    0.088264    0.000661   -0.000349    0.000048
N     0.012656   -1.463961    0.112091    0.001407   -0.000277    0.000062
C    -1.137279   -0.728114    0.019645   -0.002701   -0.002293    0.000120
N    -0.973256    0.665898   -0.091554   -0.123908    0.075661   -0.009844
C     0.198387    1.421682   -0.121475    0.000872    0.003333   -0.000244
O    -2.278398   -1.195114    0.027552    0.000401    0.000122    0.000001
O     0.157256    2.654029   -0.224890    0.000102   -0.000446    0.000039
H     2.072339   -1.429413    0.165298   -0.003067    0.002034   -0.000249
H    -2.042676    1.324902   -0.176853    1.697308   -1.039093    0.134933
H     2.348271    1.033822   -0.030625    0.001607    0.001783   -0.000100
11
* Frequency(32) 3595.2527
C     1.357708    0.575724   -0.019982    0.001035   -0.001288    0.000135
C     1.169529   -0.796569    0.088269    0.000661   -0.000349    0.000048
N     0.012816   -1.463992    0.112098    0.001407   -0.000277    0.000062
C    -1.137586   -0.728374    0.019659   -0.002701   -0.002293    0.000120
N    -0.987337    0.674496   -0.092673   -0.123908    0.075661   -0.009844
C     0.198487    1.422060   -0.121503    0.000872    0.003333   -0.000244
O    -2.278352   -1.195100    0.027552    0.000401    0.000122    0.000001
O     0.157268    2.653978   -0.224886    0.000102   -0.000446    0.000039
H     2.071990   -1.429182    0.165269   -0.003067    0.002034   -0.000249
H    -1.849786    1.206815   -0.161518    1.697308   -1.039093    0.134933
H     2.348454    1.034025   -0.030636    0.001607    0.001783   -0.000100
