11
* (null), Energy   -1000.0000000
C     1.357708    0.575724   -0.019982   -0.131041   -0.174972    0.010845
C     1.169529   -0.796569    0.088269   -0.053840    0.159879   -0.014515
N     0.012816   -1.463992    0.112098    0.190578    0.113070   -0.004221
C    -1.137586   -0.728374    0.019659    0.016125   -0.094438    0.008353
N    -0.987337    0.674496   -0.092673   -0.057015    0.058177   -0.006481
C     0.198487    1.422060   -0.121503    0.033296    0.002512    0.000729
O    -2.278352   -1.195100    0.027552   -0.056292    0.018214   -0.003061
O     0.157268    2.653978   -0.224886   -0.016311   -0.037402    0.002650
H     2.071990   -1.429182    0.165269    0.320063    0.684124   -0.048224
H    -1.849786    1.206815   -0.161518    0.038808    0.219231   -0.016719
H     2.348454    1.034025   -0.030636    0.551602   -1.703215    0.155675
11
* Frequency(21) 1081.2583
C     1.342816    0.555840   -0.018749   -0.131041   -0.174972    0.010845
C     1.163410   -0.778400    0.086620   -0.053840    0.159879   -0.014515
N     0.034474   -1.451143    0.111618    0.190578    0.113070   -0.004221
C    -1.135753   -0.739107    0.020608    0.016125   -0.094438    0.008353
N    -0.993817    0.681108   -0.093409   -0.057015    0.058177   -0.006481
C     0.202270    1.422346   -0.121420    0.033296    0.002512    0.000729
O    -2.284750   -1.193030    0.027204   -0.056292    0.018214   -0.003061
O     0.155414    2.649727   -0.224584   -0.016311   -0.037402    0.002650
H     2.108364   -1.351435    0.159789    0.320063    0.684124   -0.048224
H    -1.845375    1.231729   -0.163419    0.038808    0.219231   -0.016719
H     2.411141    0.840463   -0.012944    0.551602   -1.703215    0.155675
11
* Frequency(21) 1081.2583
C     1.329537    0.538110   -0.017650   -0.131041   -0.174972    0.010845
C     1.157955   -0.762199    0.085149   -0.053840    0.159879   -0.014515
N     0.053786   -1.439685    0.111191    0.190578    0.113070   -0.004221
C    -1.134119   -0.748676    0.021455    0.016125   -0.094438    0.008353
N    -0.999594    0.687003   -0.094066   -0.057015    0.058177   -0.006481
C     0.205644    1.422600   -0.121346    0.033296    0.002512    0.000729
O    -2.290454   -1.191185    0.026894   -0.056292    0.018214   -0.003061
O     0.153761    2.645938   -0.224316   -0.016311   -0.037402    0.002650
H     2.140796   -1.282113    0.154903    0.320063    0.684124   -0.048224
H    -1.841443    1.253944   -0.165113    0.038808    0.219231   -0.016719
H     2.467034    0.667877    0.002830    0.551602   -1.703215    0.155675
11
* Frequency(21) 1081.2583
C     1.319312    0.524456   -0.016804   -0.131041   -0.174972    0.010845
C     1.153753   -0.749723    0.084016   -0.053840    0.159879   -0.014515
N     0.068657   -1.430862    0.110861    0.190578    0.113070   -0.004221
C    -1.132861   -0.756045    0.022106    0.016125   -0.094438    0.008353
N    -1.004043    0.691542   -0.094572   -0.057015    0.058177   -0.006481
C     0.208242    1.422796   -0.121289    0.033296    0.002512    0.000729
O    -2.294846   -1.189763    0.026655   -0.056292    0.018214   -0.003061
O     0.152488    2.643019   -0.224109   -0.016311   -0.037402    0.002650
H     2.165772   -1.228728    0.151139    0.320063    0.684124   -0.048224
H    -1.838415    1.271051   -0.166417    0.038808    0.219231   -0.016719
H     2.510078    0.534969    0.014978    0.551602   -1.703215    0.155675
11
* Frequency(21) 1081.2583
C     1.313247    0.516358   -0.016302   -0.131041   -0.174972    0.010845
C     1.151262   -0.742324    0.083344   -0.053840    0.159879   -0.014515
N     0.077477   -1.425629    0.110666    0.190578    0.113070   -0.004221
C    -1.132115   -0.760416    0.022493    0.016125   -0.094438    0.008353
N    -1.006682    0.694235   -0.094872   -0.057015    0.058177   -0.006481
C     0.209783    1.422913   -0.121255    0.033296    0.002512    0.000729
O    -2.297452   -1.188920    0.026513   -0.056292    0.018214   -0.003061
O     0.151733    2.641288   -0.223986   -0.016311   -0.037402    0.002650
H     2.180585   -1.197065    0.148908    0.320063    0.684124   -0.048224
H    -1.836619    1.281198   -0.167191    0.038808    0.219231   -0.016719
H     2.535607    0.456141    0.022183    0.551602   -1.703215    0.155675
11
* Frequency(21) 1081.2583
C     1.312000    0.514693   -0.016199   -0.131041   -0.174972    0.010845
C     1.150749   -0.740803    0.083206   -0.053840    0.159879   -0.014515
N     0.079291   -1.424553    0.110626    0.190578    0.113070   -0.004221
C    -1.131961   -0.761315    0.022572    0.016125   -0.094438    0.008353
N    -1.007224    0.694789   -0.094933   -0.057015    0.058177   -0.006481
C     0.210100    1.422937   -0.121248    0.033296    0.002512    0.000729
O    -2.297987   -1.188747    0.026484   -0.056292    0.018214   -0.003061
O     0.151578    2.640932   -0.223961   -0.016311   -0.037402    0.002650
H     2.183630   -1.190556    0.148449    0.320063    0.684124   -0.048224
H    -1.836249    1.283283   -0.167350    0.038808    0.219231   -0.016719
H     2.540855    0.439936    0.023664    0.551602   -1.703215    0.155675
11
* Frequency(21) 1081.2583
C     1.315707    0.519642   -0.016505   -0.131041   -0.174972    0.010845
C     1.152272   -0.745325    0.083617   -0.053840    0.159879   -0.014515
N     0.073900   -1.427751    0.110745    0.190578    0.113070   -0.004221
C    -1.132418   -0.758644    0.022336    0.016125   -0.094438    0.008353
N    -1.005612    0.693143   -0.094750   -0.057015    0.058177   -0.006481
C     0.209158    1.422865   -0.121269    0.033296    0.002512    0.000729
O    -2.296395   -1.189262    0.026571   -0.056292    0.018214   -0.003061
O     0.152040    2.641990   -0.224036   -0.016311   -0.037402    0.002650
H     2.174577   -1.209906    0.149813    0.320063    0.684124   -0.048224
H    -1.837347    1.277083   -0.166877    0.038808    0.219231   -0.016719
H     2.525254    0.488109    0.019261    0.551602   -1.703215    0.155675
11
* Frequency(21) 1081.2583
C     1.323964    0.530668   -0.017189   -0.131041   -0.174972    0.010845
C     1.155665   -0.755400    0.084532   -0.053840    0.159879   -0.014515
N     0.061891   -1.434877    0.111011    0.190578    0.113070   -0.004221
C    -1.133434   -0.752692    0.021810    0.016125   -0.094438    0.008353
N    -1.002019    0.689477   -0.094342   -0.057015    0.058177   -0.006481
C     0.207060    1.422707   -0.121315    0.033296    0.002512    0.000729
O    -2.292848   -1.190410    0.026764   -0.056292    0.018214   -0.003061
O     0.153067    2.644347   -0.224203   -0.016311   -0.037402    0.002650
H     2.154408   -1.253018    0.152852    0.320063    0.684124   -0.048224
H    -1.839792    1.263267   -0.165824    0.038808    0.219231   -0.016719
H     2.490493    0.595441    0.009451    0.551602   -1.703215    0.155675
11
* Frequency(21) 1081.2583
C     1.335879    0.546577   -0.018175   -0.131041   -0.174972    0.010845
C     1.160560   -0.769936    0.085851   -0.053840    0.159879   -0.014515
N     0.044563   -1.445157    0.111395    0.190578    0.113070   -0.004221
C    -1.134900   -0.744106    0.021050    0.016125   -0.094438    0.008353
N    -0.996835    0.684187   -0.093752   -0.057015    0.058177   -0.006481
C     0.204033    1.422479   -0.121381    0.033296    0.002512    0.000729
O    -2.287730   -1.192066    0.027042   -0.056292    0.018214   -0.003061
O     0.154550    2.647748   -0.224444   -0.016311   -0.037402    0.002650
H     2.125307   -1.315219    0.157236    0.320063    0.684124   -0.048224
H    -1.843321    1.243334   -0.164304    0.038808    0.219231   -0.016719
H     2.440341    0.750300   -0.004704    0.551602   -1.703215    0.155675
11
* Frequency(21) 1081.2583
C     1.350159    0.565644   -0.019357   -0.131041   -0.174972    0.010845
C     1.166427   -0.787359    0.087433   -0.053840    0.159879   -0.014515
N     0.023795   -1.457479    0.111855    0.190578    0.113070   -0.004221
C    -1.136657   -0.733815    0.020140    0.016125   -0.094438    0.008353
N    -0.990622    0.677848   -0.093046   -0.057015    0.058177   -0.006481
C     0.200405    1.422205   -0.121461    0.033296    0.002512    0.000729
O    -2.281595   -1.194051    0.027376   -0.056292    0.018214   -0.003061
O     0.156328    2.651823   -0.224733   -0.016311   -0.037402    0.002650
H     2.090429   -1.389771    0.162491    0.320063    0.684124   -0.048224
H    -1.847550    1.219444   -0.162482    0.038808    0.219231   -0.016719
H     2.380231    0.935906   -0.021668    0.551602   -1.703215    0.155675
11
* Frequency(21) 1081.2583
C     1.365257    0.585804   -0.020606   -0.131041   -0.174972    0.010845
C     1.172630   -0.805780    0.089105   -0.053840    0.159879   -0.014515
N     0.001837   -1.470506    0.112341    0.190578    0.113070   -0.004221
C    -1.138515   -0.722934    0.019178    0.016125   -0.094438    0.008353
N    -0.984053    0.671145   -0.092299   -0.057015    0.058177   -0.006481
C     0.196568    1.421916   -0.121545    0.033296    0.002512    0.000729
O    -2.275110   -1.196149    0.027728   -0.056292    0.018214   -0.003061
O     0.158207    2.656133   -0.225038   -0.016311   -0.037402    0.002650
H     2.053552   -1.468593    0.168048    0.320063    0.684124   -0.048224
H    -1.852021    1.194185   -0.160555    0.038808    0.219231   -0.016719
H     2.316677    1.132144   -0.039604    0.551602   -1.703215    0.155675
11
* Frequency(21) 1081.2583
C     1.379537    0.604871   -0.021788   -0.131041   -0.174972    0.010845
C     1.178498   -0.823202    0.090687   -0.053840    0.159879   -0.014515
N    -0.018931   -1.482828    0.112801    0.190578    0.113070   -0.004221
C    -1.140272   -0.712642    0.018267    0.016125   -0.094438    0.008353
N    -0.977840    0.664805   -0.091593   -0.057015    0.058177   -0.006481
C     0.192940    1.421642   -0.121624    0.033296    0.002512    0.000729
O    -2.268975   -1.198134    0.028062   -0.056292    0.018214   -0.003061
O     0.159985    2.660208   -0.225327   -0.016311   -0.037402    0.002650
H     2.018674   -1.543144    0.173303    0.320063    0.684124   -0.048224
H    -1.856250    1.170295   -0.158733    0.038808    0.219231   -0.016719
H     2.256567    1.317749   -0.056569    0.551602   -1.703215    0.155675
11
* Frequency(21) 1081.2583
C     1.391451    0.620780   -0.022774   -0.131041   -0.174972    0.010845
C     1.183393   -0.837739    0.092007   -0.053840    0.159879   -0.014515
N    -0.036258   -1.493108    0.113185    0.190578    0.113070   -0.004221
C    -1.141738   -0.704056    0.017508    0.016125   -0.094438    0.008353
N    -0.972656    0.659515   -0.091004   -0.057015    0.058177   -0.006481
C     0.189913    1.421414   -0.121690    0.033296    0.002512    0.000729
O    -2.263857   -1.199790    0.028340   -0.056292    0.018214   -0.003061
O     0.161468    2.663609   -0.225568   -0.016311   -0.037402    0.002650
H     1.989573   -1.605346    0.177687    0.320063    0.684124   -0.048224
H    -1.859779    1.150362   -0.157213    0.038808    0.219231   -0.016719
H     2.206415    1.472608   -0.070723    0.551602   -1.703215    0.155675
11
* Frequency(21) 1081.2583
C     1.399709    0.631806   -0.023458   -0.131041   -0.174972    0.010845
C     1.186786   -0.847814    0.092921   -0.053840    0.159879   -0.014515
N    -0.048268   -1.500234    0.113451    0.190578    0.113070   -0.004221
C    -1.142754   -0.698105    0.016981    0.016125   -0.094438    0.008353
N    -0.969063    0.655849   -0.090596   -0.057015    0.058177   -0.006481
C     0.187815    1.421255   -0.121736    0.033296    0.002512    0.000729
O    -2.260310   -1.200938    0.028533   -0.056292    0.018214   -0.003061
O     0.162496    2.665966   -0.225735   -0.016311   -0.037402    0.002650
H     1.969404   -1.648458    0.180726    0.320063    0.684124   -0.048224
H    -1.862224    1.136546   -0.156160    0.038808    0.219231   -0.016719
H     2.171654    1.579940   -0.080533    0.551602   -1.703215    0.155675
11
* Frequency(21) 1081.2583
C     1.403415    0.636755   -0.023765   -0.131041   -0.174972    0.010845
C     1.188308   -0.852336    0.093332   -0.053840    0.159879   -0.014515
N    -0.053658   -1.503432    0.113570    0.190578    0.113070   -0.004221
C    -1.143210   -0.695434    0.016745    0.016125   -0.094438    0.008353
N    -0.967450    0.654204   -0.090412   -0.057015    0.058177   -0.006481
C     0.186873    1.421184   -0.121757    0.033296    0.002512    0.000729
O    -2.258718   -1.201453    0.028620   -0.056292    0.018214   -0.003061
O     0.162957    2.667024   -0.225810   -0.016311   -0.037402    0.002650
H     1.960351   -1.667808    0.182090    0.320063    0.684124   -0.048224
H    -1.863322    1.130346   -0.155687    0.038808    0.219231   -0.016719
H     2.156053    1.628114   -0.084936    0.551602   -1.703215    0.155675
11
* Frequency(21) 1081.2583
C     1.402169    0.635090   -0.023661   -0.131041   -0.174972    0.010845
C     1.187796   -0.850815    0.093194   -0.053840    0.159879   -0.014515
N    -0.051845   -1.502356    0.113530    0.190578    0.113070   -0.004221
C    -1.143057   -0.696332    0.016825    0.016125   -0.094438    0.008353
N    -0.967993    0.654757   -0.090474   -0.057015    0.058177   -0.006481
C     0.187190    1.421208   -0.121750    0.033296    0.002512    0.000729
O    -2.259253   -1.201280    0.028590   -0.056292    0.018214   -0.003061
O     0.162802    2.666668   -0.225785   -0.016311   -0.037402    0.002650
H     1.963396   -1.661298    0.181631    0.320063    0.684124   -0.048224
H    -1.862953    1.132431   -0.155846    0.038808    0.219231   -0.016719
H     2.161301    1.611908   -0.083455    0.551602   -1.703215    0.155675
11
* Frequency(21) 1081.2583
C     1.396104    0.626992   -0.023159   -0.131041   -0.174972    0.010845
C     1.185304   -0.843415    0.092522   -0.053840    0.159879   -0.014515
N    -0.043025   -1.497123    0.113335    0.190578    0.113070   -0.004221
C    -1.142311   -0.700703    0.017211    0.016125   -0.094438    0.008353
N    -0.970632    0.657450   -0.090774   -0.057015    0.058177   -0.006481
C     0.188731    1.421324   -0.121716    0.033296    0.002512    0.000729
O    -2.261858   -1.200437    0.028449   -0.056292    0.018214   -0.003061
O     0.162047    2.664937   -0.225662   -0.016311   -0.037402    0.002650
H     1.978209   -1.629636    0.179399    0.320063    0.684124   -0.048224
H    -1.861157    1.142578   -0.156620    0.038808    0.219231   -0.016719
H     2.186830    1.533080   -0.076250    0.551602   -1.703215    0.155675
11
* Frequency(21) 1081.2583
C     1.385878    0.613339   -0.022313   -0.131041   -0.174972    0.010845
C     1.181103   -0.830939    0.091389   -0.053840    0.159879   -0.014515
N    -0.028153   -1.488299    0.113005    0.190578    0.113070   -0.004221
C    -1.141052   -0.708072    0.017863    0.016125   -0.094438    0.008353
N    -0.975081    0.661990   -0.091280   -0.057015    0.058177   -0.006481
C     0.191329    1.421520   -0.121659    0.033296    0.002512    0.000729
O    -2.266251   -1.199016    0.028210   -0.056292    0.018214   -0.003061
O     0.160774    2.662018   -0.225455   -0.016311   -0.037402    0.002650
H     2.003185   -1.576251    0.175636    0.320063    0.684124   -0.048224
H    -1.858128    1.159685   -0.157924    0.038808    0.219231   -0.016719
H     2.229874    1.400172   -0.064102    0.551602   -1.703215    0.155675
11
* Frequency(21) 1081.2583
C     1.372600    0.595609   -0.021214   -0.131041   -0.174972    0.010845
C     1.175647   -0.814739    0.089919   -0.053840    0.159879   -0.014515
N    -0.008842   -1.476842    0.112578    0.190578    0.113070   -0.004221
C    -1.139418   -0.717642    0.018710    0.016125   -0.094438    0.008353
N    -0.980858    0.667885   -0.091936   -0.057015    0.058177   -0.006481
C     0.194703    1.421775   -0.121586    0.033296    0.002512    0.000729
O    -2.271955   -1.197170    0.027900   -0.056292    0.018214   -0.003061
O     0.159121    2.658229   -0.225187   -0.016311   -0.037402    0.002650
H     2.035617   -1.506929    0.170750    0.320063    0.684124   -0.048224
H    -1.854196    1.181900   -0.159618    0.038808    0.219231   -0.016719
H     2.285767    1.227586   -0.048328    0.551602   -1.703215    0.155675
11
* Frequency(21) 1081.2583
C     1.357708    0.575724   -0.019982   -0.131041   -0.174972    0.010845
C     1.169529   -0.796569    0.088269   -0.053840    0.159879   -0.014515
N     0.012816   -1.463992    0.112098    0.190578    0.113070   -0.004221
C    -1.137586   -0.728374    0.019659    0.016125   -0.094438    0.008353
N    -0.987337    0.674496   -0.092673   -0.057015    0.058177   -0.006481
C     0.198487    1.422060   -0.121503    0.033296    0.002512    0.000729
O    -2.278352   -1.195100    0.027552   -0.056292    0.018214   -0.003061
O     0.157268    2.653978   -0.224886   -0.016311   -0.037402    0.002650
H     2.071990   -1.429182    0.165269    0.320063    0.684124   -0.048224
H    -1.849786    1.206815   -0.161518    0.038808    0.219231   -0.016719
H     2.348454    1.034025   -0.030636    0.551602   -1.703215    0.155675
