11
* (null), Energy   -1000.0000000
C     1.591454    0.406609    0.009810   -0.010886    0.031056    0.365607
C     1.402862   -0.965542    0.118363   -0.006091    0.013065    0.137070
N     0.246024   -1.632751    0.142050    0.004945   -0.017823   -0.215220
C    -0.904486   -0.897558    0.049520   -0.012219    0.040426    0.480822
N    -0.754011    0.505509   -0.063362   -0.000438    0.003700    0.052563
C     0.431975    1.252895   -0.092416    0.020217   -0.061082   -0.731839
O    -2.045071   -1.364389    0.057523    0.004704   -0.010258   -0.125577
O     0.390516    2.484935   -0.194533   -0.006023    0.017361    0.230017
H     2.305441   -1.598210    0.195810    0.008999   -0.030675   -0.396851
H    -1.616489    1.037825   -0.130328    0.011457   -0.031247   -0.376435
H     2.582079    0.864994   -0.000426    0.044841   -0.134175   -1.622847
11
* Frequency(15)  796.9929
C     1.590217    0.410139    0.051360   -0.010886    0.031056    0.365607
C     1.402170   -0.964057    0.133941   -0.006091    0.013065    0.137070
N     0.246586   -1.634776    0.117591    0.004945   -0.017823   -0.215220
C    -0.905875   -0.892964    0.104162   -0.012219    0.040426    0.480822
N    -0.754061    0.505930   -0.057388   -0.000438    0.003700    0.052563
C     0.434273    1.245954   -0.175586    0.020217   -0.061082   -0.731839
O    -2.044536   -1.365555    0.043252    0.004704   -0.010258   -0.125577
O     0.389832    2.486908   -0.168393   -0.006023    0.017361    0.230017
H     2.306464   -1.601696    0.150710    0.008999   -0.030675   -0.396851
H    -1.615187    1.034274   -0.173108    0.011457   -0.031247   -0.376435
H     2.587175    0.849745   -0.184854    0.044841   -0.134175   -1.622847
11
* Frequency(15)  796.9929
C     1.589114    0.413285    0.088407   -0.010886    0.031056    0.365607
C     1.401553   -0.962733    0.147830   -0.006091    0.013065    0.137070
N     0.247087   -1.636582    0.095783    0.004945   -0.017823   -0.215220
C    -0.907113   -0.888868    0.152884   -0.012219    0.040426    0.480822
N    -0.754105    0.506305   -0.052062   -0.000438    0.003700    0.052563
C     0.436321    1.239764   -0.249743    0.020217   -0.061082   -0.731839
O    -2.044060   -1.366594    0.030527    0.004704   -0.010258   -0.125577
O     0.389221    2.488667   -0.145085   -0.006023    0.017361    0.230017
H     2.307376   -1.604804    0.110497    0.008999   -0.030675   -0.396851
H    -1.614026    1.031108   -0.211252    0.011457   -0.031247   -0.376435
H     2.591719    0.836149   -0.349297    0.044841   -0.134175   -1.622847
11
* Frequency(15)  796.9929
C     1.588265    0.415709    0.116936   -0.010886    0.031056    0.365607
C     1.401077   -0.961714    0.158526   -0.006091    0.013065    0.137070
N     0.247473   -1.637973    0.078989    0.004945   -0.017823   -0.215220
C    -0.908067   -0.885713    0.190404   -0.012219    0.040426    0.480822
N    -0.754140    0.506593   -0.047960   -0.000438    0.003700    0.052563
C     0.437899    1.234998   -0.306851    0.020217   -0.061082   -0.731839
O    -2.043693   -1.367395    0.020728    0.004704   -0.010258   -0.125577
O     0.388751    2.490022   -0.127136   -0.006023    0.017361    0.230017
H     2.308078   -1.607198    0.079529    0.008999   -0.030675   -0.396851
H    -1.613132    1.028669   -0.240626    0.011457   -0.031247   -0.376435
H     2.595218    0.825679   -0.475934    0.044841   -0.134175   -1.622847
11
* Frequency(15)  796.9929
C     1.587761    0.417146    0.133857   -0.010886    0.031056    0.365607
C     1.400796   -0.961109    0.164870   -0.006091    0.013065    0.137070
N     0.247702   -1.638798    0.069028    0.004945   -0.017823   -0.215220
C    -0.908632   -0.883842    0.212658   -0.012219    0.040426    0.480822
N    -0.754160    0.506765   -0.045528   -0.000438    0.003700    0.052563
C     0.438835    1.232171   -0.340722    0.020217   -0.061082   -0.731839
O    -2.043475   -1.367869    0.014916    0.004704   -0.010258   -0.125577
O     0.388472    2.490825   -0.116490   -0.006023    0.017361    0.230017
H     2.308494   -1.608618    0.061162    0.008999   -0.030675   -0.396851
H    -1.612602    1.027223   -0.258049    0.011457   -0.031247   -0.376435
H     2.597293    0.819469   -0.551042    0.044841   -0.134175   -1.622847
11
* Frequency(15)  796.9929
C     1.587657    0.417442    0.137336   -0.010886    0.031056    0.365607
C     1.400738   -0.960985    0.166174   -0.006091    0.013065    0.137070
N     0.247749   -1.638967    0.066980    0.004945   -0.017823   -0.215220
C    -0.908749   -0.883457    0.217232   -0.012219    0.040426    0.480822
N    -0.754164    0.506800   -0.045027   -0.000438    0.003700    0.052563
C     0.439027    1.231590   -0.347685    0.020217   -0.061082   -0.731839
O    -2.043430   -1.367967    0.013721    0.004704   -0.010258   -0.125577
O     0.388415    2.490990   -0.114302   -0.006023    0.017361    0.230017
H     2.308580   -1.608909    0.057386    0.008999   -0.030675   -0.396851
H    -1.612493    1.026926   -0.261630    0.011457   -0.031247   -0.376435
H     2.597720    0.818193   -0.566482    0.044841   -0.134175   -1.622847
11
* Frequency(15)  796.9929
C     1.587965    0.416563    0.126995   -0.010886    0.031056    0.365607
C     1.400910   -0.961354    0.162297   -0.006091    0.013065    0.137070
N     0.247609   -1.638463    0.073067    0.004945   -0.017823   -0.215220
C    -0.908403   -0.884601    0.203633   -0.012219    0.040426    0.480822
N    -0.754152    0.506695   -0.046514   -0.000438    0.003700    0.052563
C     0.438455    1.233317   -0.326985    0.020217   -0.061082   -0.731839
O    -2.043563   -1.367677    0.017273    0.004704   -0.010258   -0.125577
O     0.388586    2.490499   -0.120808   -0.006023    0.017361    0.230017
H     2.308325   -1.608042    0.068611    0.008999   -0.030675   -0.396851
H    -1.612817    1.027810   -0.250983    0.011457   -0.031247   -0.376435
H     2.596452    0.821988   -0.520582    0.044841   -0.134175   -1.622847
11
* Frequency(15)  796.9929
C     1.588651    0.414606    0.103956   -0.010886    0.031056    0.365607
C     1.401294   -0.962177    0.153659   -0.006091    0.013065    0.137070
N     0.247297   -1.637340    0.086630    0.004945   -0.017823   -0.215220
C    -0.907633   -0.887148    0.173333   -0.012219    0.040426    0.480822
N    -0.754124    0.506462   -0.049827   -0.000438    0.003700    0.052563
C     0.437181    1.237166   -0.280867    0.020217   -0.061082   -0.731839
O    -2.043860   -1.367030    0.025186    0.004704   -0.010258   -0.125577
O     0.388965    2.489405   -0.135303   -0.006023    0.017361    0.230017
H     2.307758   -1.606109    0.093619    0.008999   -0.030675   -0.396851
H    -1.613539    1.029779   -0.227261    0.011457   -0.031247   -0.376435
H     2.593626    0.830443   -0.418314    0.044841   -0.134175   -1.622847
11
* Frequency(15)  796.9929
C     1.589641    0.411783    0.070714   -0.010886    0.031056    0.365607
C     1.401847   -0.963365    0.141197   -0.006091    0.013065    0.137070
N     0.246848   -1.635720    0.106198    0.004945   -0.017823   -0.215220
C    -0.906522   -0.890824    0.129616   -0.012219    0.040426    0.480822
N    -0.754084    0.506126   -0.054606   -0.000438    0.003700    0.052563
C     0.435343    1.242720   -0.214327    0.020217   -0.061082   -0.731839
O    -2.044287   -1.366098    0.036604    0.004704   -0.010258   -0.125577
O     0.389513    2.487827   -0.156216   -0.006023    0.017361    0.230017
H     2.306940   -1.603320    0.129702    0.008999   -0.030675   -0.396851
H    -1.614580    1.032620   -0.193035    0.011457   -0.031247   -0.376435
H     2.589549    0.842643   -0.270762    0.044841   -0.134175   -1.622847
11
* Frequency(15)  796.9929
C     1.590827    0.408398    0.030872   -0.010886    0.031056    0.365607
C     1.402511   -0.964789    0.126260   -0.006091    0.013065    0.137070
N     0.246309   -1.633777    0.129651    0.004945   -0.017823   -0.215220
C    -0.905190   -0.895229    0.077219   -0.012219    0.040426    0.480822
N    -0.754036    0.505722   -0.060334   -0.000438    0.003700    0.052563
C     0.433140    1.249376   -0.134576    0.020217   -0.061082   -0.731839
O    -2.044800   -1.364980    0.050289    0.004704   -0.010258   -0.125577
O     0.390169    2.485935   -0.181282   -0.006023    0.017361    0.230017
H     2.305959   -1.599977    0.172948    0.008999   -0.030675   -0.396851
H    -1.615829    1.036025   -0.152013    0.011457   -0.031247   -0.376435
H     2.584663    0.857264   -0.093915    0.044841   -0.134175   -1.622847
11
* Frequency(15)  796.9929
C     1.592081    0.404820   -0.011251   -0.010886    0.031056    0.365607
C     1.403213   -0.966294    0.110467   -0.006091    0.013065    0.137070
N     0.245739   -1.631724    0.154448    0.004945   -0.017823   -0.215220
C    -0.903783   -0.899887    0.021820   -0.012219    0.040426    0.480822
N    -0.753986    0.505296   -0.066390   -0.000438    0.003700    0.052563
C     0.430810    1.256414   -0.050256    0.020217   -0.061082   -0.731839
O    -2.045342   -1.363798    0.064757    0.004704   -0.010258   -0.125577
O     0.390863    2.483935   -0.207784   -0.006023    0.017361    0.230017
H     2.304923   -1.596443    0.218672    0.008999   -0.030675   -0.396851
H    -1.617149    1.039625   -0.108642    0.011457   -0.031247   -0.376435
H     2.579496    0.872723    0.093063    0.044841   -0.134175   -1.622847
11
* Frequency(15)  796.9929
C     1.593268    0.401436   -0.051093   -0.010886    0.031056    0.365607
C     1.403877   -0.967718    0.095530   -0.006091    0.013065    0.137070
N     0.245200   -1.629782    0.177901    0.004945   -0.017823   -0.215220
C    -0.902451   -0.904293   -0.030576   -0.012219    0.040426    0.480822
N    -0.753938    0.504893   -0.072118   -0.000438    0.003700    0.052563
C     0.428607    1.263070    0.029495    0.020217   -0.061082   -0.731839
O    -2.045854   -1.362680    0.078442    0.004704   -0.010258   -0.125577
O     0.391519    2.482043   -0.232850   -0.006023    0.017361    0.230017
H     2.303942   -1.593100    0.261918    0.008999   -0.030675   -0.396851
H    -1.618397    1.043030   -0.067621    0.011457   -0.031247   -0.376435
H     2.574610    0.887345    0.269910    0.044841   -0.134175   -1.622847
11
* Frequency(15)  796.9929
C     1.594258    0.398612   -0.084335   -0.010886    0.031056    0.365607
C     1.404430   -0.968906    0.083067   -0.006091    0.013065    0.137070
N     0.244750   -1.628161    0.197469    0.004945   -0.017823   -0.215220
C    -0.901340   -0.907968   -0.074294   -0.012219    0.040426    0.480822
N    -0.753898    0.504556   -0.076897   -0.000438    0.003700    0.052563
C     0.426769    1.268624    0.096035    0.020217   -0.061082   -0.731839
O    -2.046282   -1.361747    0.089860    0.004704   -0.010258   -0.125577
O     0.392067    2.480464   -0.253763   -0.006023    0.017361    0.230017
H     2.303124   -1.590311    0.298001    0.008999   -0.030675   -0.396851
H    -1.619439    1.045871   -0.033394    0.011457   -0.031247   -0.376435
H     2.570533    0.899544    0.417463    0.044841   -0.134175   -1.622847
11
* Frequency(15)  796.9929
C     1.594944    0.396655   -0.107374   -0.010886    0.031056    0.365607
C     1.404814   -0.969729    0.074429   -0.006091    0.013065    0.137070
N     0.244439   -1.627038    0.211032    0.004945   -0.017823   -0.215220
C    -0.900570   -0.910516   -0.104594   -0.012219    0.040426    0.480822
N    -0.753871    0.504323   -0.080209   -0.000438    0.003700    0.052563
C     0.425495    1.272473    0.142154    0.020217   -0.061082   -0.731839
O    -2.046578   -1.361101    0.097773    0.004704   -0.010258   -0.125577
O     0.392447    2.479370   -0.268258   -0.006023    0.017361    0.230017
H     2.302557   -1.588378    0.323009    0.008999   -0.030675   -0.396851
H    -1.620161    1.047840   -0.009672    0.011457   -0.031247   -0.376435
H     2.567707    0.907999    0.519730    0.044841   -0.134175   -1.622847
11
* Frequency(15)  796.9929
C     1.595251    0.395777   -0.117715   -0.010886    0.031056    0.365607
C     1.404986   -0.970099    0.070552   -0.006091    0.013065    0.137070
N     0.244299   -1.626534    0.217119    0.004945   -0.017823   -0.215220
C    -0.900224   -0.911659   -0.118193   -0.012219    0.040426    0.480822
N    -0.753858    0.504219   -0.081696   -0.000438    0.003700    0.052563
C     0.424923    1.274201    0.162853    0.020217   -0.061082   -0.731839
O    -2.046711   -1.360811    0.101325    0.004704   -0.010258   -0.125577
O     0.392617    2.478879   -0.274764   -0.006023    0.017361    0.230017
H     2.302302   -1.587511    0.334234    0.008999   -0.030675   -0.396851
H    -1.620485    1.048724    0.000975    0.011457   -0.031247   -0.376435
H     2.566438    0.911794    0.565630    0.044841   -0.134175   -1.622847
11
* Frequency(15)  796.9929
C     1.595148    0.396072   -0.114236   -0.010886    0.031056    0.365607
C     1.404928   -0.969975    0.071857   -0.006091    0.013065    0.137070
N     0.244346   -1.626703    0.215072    0.004945   -0.017823   -0.215220
C    -0.900341   -0.911275   -0.113619   -0.012219    0.040426    0.480822
N    -0.753863    0.504254   -0.081196   -0.000438    0.003700    0.052563
C     0.425116    1.273620    0.155890    0.020217   -0.061082   -0.731839
O    -2.046667   -1.360909    0.100130    0.004704   -0.010258   -0.125577
O     0.392560    2.479044   -0.272576   -0.006023    0.017361    0.230017
H     2.302388   -1.587802    0.330458    0.008999   -0.030675   -0.396851
H    -1.620376    1.048426   -0.002607    0.011457   -0.031247   -0.376435
H     2.566865    0.910518    0.550190    0.044841   -0.134175   -1.622847
11
* Frequency(15)  796.9929
C     1.594644    0.397510   -0.097316   -0.010886    0.031056    0.365607
C     1.404647   -0.969370    0.078201   -0.006091    0.013065    0.137070
N     0.244575   -1.627528    0.205111    0.004945   -0.017823   -0.215220
C    -0.900906   -0.909404   -0.091365   -0.012219    0.040426    0.480822
N    -0.753883    0.504425   -0.078763   -0.000438    0.003700    0.052563
C     0.426051    1.270793    0.122019    0.020217   -0.061082   -0.731839
O    -2.046449   -1.361383    0.094318    0.004704   -0.010258   -0.125577
O     0.392281    2.479848   -0.261930   -0.006023    0.017361    0.230017
H     2.302804   -1.589222    0.312091    0.008999   -0.030675   -0.396851
H    -1.619846    1.046980   -0.020029    0.011457   -0.031247   -0.376435
H     2.568940    0.904308    0.475082    0.044841   -0.134175   -1.622847
11
* Frequency(15)  796.9929
C     1.593795    0.399933   -0.068786   -0.010886    0.031056    0.365607
C     1.404171   -0.968350    0.088897   -0.006091    0.013065    0.137070
N     0.244961   -1.628919    0.188316    0.004945   -0.017823   -0.215220
C    -0.901860   -0.906249   -0.053845   -0.012219    0.040426    0.480822
N    -0.753917    0.504714   -0.074662   -0.000438    0.003700    0.052563
C     0.427629    1.266026    0.064911    0.020217   -0.061082   -0.731839
O    -2.046082   -1.362184    0.084519    0.004704   -0.010258   -0.125577
O     0.391811    2.481203   -0.243981   -0.006023    0.017361    0.230017
H     2.303506   -1.591616    0.281123    0.008999   -0.030675   -0.396851
H    -1.618952    1.044542   -0.049404    0.011457   -0.031247   -0.376435
H     2.572440    0.893838    0.348445    0.044841   -0.134175   -1.622847
11
* Frequency(15)  796.9929
C     1.592691    0.403080   -0.031739   -0.010886    0.031056    0.365607
C     1.403554   -0.967027    0.102786   -0.006091    0.013065    0.137070
N     0.245462   -1.630725    0.166508    0.004945   -0.017823   -0.215220
C    -0.903098   -0.902153   -0.005123   -0.012219    0.040426    0.480822
N    -0.753961    0.505089   -0.069335   -0.000438    0.003700    0.052563
C     0.429678    1.259837   -0.009246    0.020217   -0.061082   -0.731839
O    -2.045605   -1.363223    0.071794    0.004704   -0.010258   -0.125577
O     0.391201    2.482962   -0.220673   -0.006023    0.017361    0.230017
H     2.304418   -1.594724    0.240910    0.008999   -0.030675   -0.396851
H    -1.617791    1.041376   -0.087548    0.011457   -0.031247   -0.376435
H     2.576983    0.880242    0.184002    0.044841   -0.134175   -1.622847
11
* Frequency(15)  796.9929
C     1.591454    0.406609    0.009810   -0.010886    0.031056    0.365607
C     1.402862   -0.965542    0.118363   -0.006091    0.013065    0.137070
N     0.246024   -1.632751    0.142050    0.004945   -0.017823   -0.215220
C    -0.904486   -0.897558    0.049520   -0.012219    0.040426    0.480822
N    -0.754011    0.505509   -0.063362   -0.000438    0.003700    0.052563
C     0.431975    1.252895   -0.092416    0.020217   -0.061082   -0.731839
O    -2.045071   -1.364389    0.057523    0.004704   -0.010258   -0.125577
O     0.390516    2.484935   -0.194533   -0.006023    0.017361    0.230017
H     2.305441   -1.598210    0.195810    0.008999   -0.030675   -0.396851
H    -1.616489    1.037825   -0.130328    0.011457   -0.031247   -0.376435
H     2.582079    0.864994   -0.000426    0.044841   -0.134175   -1.622847
