11
* (null), Energy   -1000.0000000
C     1.591454    0.406609    0.009810   -0.320859    0.291182   -0.038148
C     1.402862   -0.965542    0.118363   -0.901223    0.568423   -0.070362
N     0.246024   -1.632751    0.142050   -0.349098    0.024745   -0.014182
C    -0.904486   -0.897558    0.049520    0.286603    0.225282   -0.003643
N    -0.754011    0.505509   -0.063362    0.393844   -0.231858    0.025774
C     0.431975    1.252895   -0.092416    0.057793   -0.318615    0.037868
O    -2.045071   -1.364389    0.057523    0.556923    0.063913    0.007738
O     0.390516    2.484935   -0.194533    0.096253   -0.494960    0.040476
H     2.305441   -1.598210    0.195810   -0.749102    0.820470   -0.087329
H    -1.616489    1.037825   -0.130328    0.438960   -0.208578    0.039322
H     2.582079    0.864994   -0.000426   -0.220628   -0.022941    0.006833
11
* Frequency(16)  802.2604
C     1.554990    0.439701    0.005475   -0.320859    0.291182   -0.038148
C     1.300443   -0.900943    0.110367   -0.901223    0.568423   -0.070362
N     0.206351   -1.629938    0.140438   -0.349098    0.024745   -0.014182
C    -0.871916   -0.871956    0.049106    0.286603    0.225282   -0.003643
N    -0.709253    0.479160   -0.060433    0.393844   -0.231858    0.025774
C     0.438543    1.216686   -0.088112    0.057793   -0.318615    0.037868
O    -1.981779   -1.357126    0.058402    0.556923    0.063913    0.007738
O     0.401455    2.428685   -0.189933    0.096253   -0.494960    0.040476
H     2.220309   -1.504968    0.185886   -0.749102    0.820470   -0.087329
H    -1.566603    1.014121   -0.125859    0.438960   -0.208578    0.039322
H     2.557006    0.862386    0.000351   -0.220628   -0.022941    0.006833
11
* Frequency(16)  802.2604
C     1.522478    0.469206    0.001610   -0.320859    0.291182   -0.038148
C     1.209122   -0.843345    0.103237   -0.901223    0.568423   -0.070362
N     0.170977   -1.627431    0.139001   -0.349098    0.024745   -0.014182
C    -0.842874   -0.849128    0.048736    0.286603    0.225282   -0.003643
N    -0.669345    0.455666   -0.057821    0.393844   -0.231858    0.025774
C     0.444399    1.184401   -0.084275    0.057793   -0.318615    0.037868
O    -1.925347   -1.350649    0.059186    0.556923    0.063913    0.007738
O     0.411208    2.378531   -0.185832    0.096253   -0.494960    0.040476
H     2.144403   -1.421830    0.177036   -0.749102    0.820470   -0.087329
H    -1.522124    0.992986   -0.121874    0.438960   -0.208578    0.039322
H     2.534650    0.860062    0.001043   -0.220628   -0.022941    0.006833
11
* Frequency(16)  802.2604
C     1.497440    0.491928   -0.001367   -0.320859    0.291182   -0.038148
C     1.138796   -0.798989    0.097747   -0.901223    0.568423   -0.070362
N     0.143735   -1.625500    0.137894   -0.349098    0.024745   -0.014182
C    -0.820510   -0.831549    0.048452    0.286603    0.225282   -0.003643
N    -0.638612    0.437573   -0.055810    0.393844   -0.231858    0.025774
C     0.448909    1.159538   -0.081320    0.057793   -0.318615    0.037868
O    -1.881888   -1.345662    0.059790    0.556923    0.063913    0.007738
O     0.418719    2.339907   -0.182673    0.096253   -0.494960    0.040476
H     2.085948   -1.357805    0.170222   -0.749102    0.820470   -0.087329
H    -1.487870    0.976710   -0.118806    0.438960   -0.208578    0.039322
H     2.517433    0.858272    0.001576   -0.220628   -0.022941    0.006833
11
* Frequency(16)  802.2604
C     1.482590    0.505404   -0.003133   -0.320859    0.291182   -0.038148
C     1.097086   -0.772682    0.094490   -0.901223    0.568423   -0.070362
N     0.127578   -1.624355    0.137238   -0.349098    0.024745   -0.014182
C    -0.807245   -0.821122    0.048284    0.286603    0.225282   -0.003643
N    -0.620384    0.426842   -0.054617    0.393844   -0.231858    0.025774
C     0.451584    1.144792   -0.079568    0.057793   -0.318615    0.037868
O    -1.856112   -1.342704    0.060148    0.556923    0.063913    0.007738
O     0.423174    2.317000   -0.180800    0.096253   -0.494960    0.040476
H     2.051278   -1.319833    0.166180   -0.749102    0.820470   -0.087329
H    -1.467554    0.967057   -0.116986    0.438960   -0.208578    0.039322
H     2.507222    0.857210    0.001892   -0.220628   -0.022941    0.006833
11
* Frequency(16)  802.2604
C     1.479537    0.508175   -0.003496   -0.320859    0.291182   -0.038148
C     1.088511   -0.767273    0.093821   -0.901223    0.568423   -0.070362
N     0.124257   -1.624120    0.137103   -0.349098    0.024745   -0.014182
C    -0.804518   -0.818979    0.048249    0.286603    0.225282   -0.003643
N    -0.616637    0.424636   -0.054372    0.393844   -0.231858    0.025774
C     0.452134    1.141761   -0.079207    0.057793   -0.318615    0.037868
O    -1.850814   -1.342096    0.060222    0.556923    0.063913    0.007738
O     0.424089    2.312290   -0.180415    0.096253   -0.494960    0.040476
H     2.044151   -1.312026    0.165349   -0.749102    0.820470   -0.087329
H    -1.463378    0.965072   -0.116612    0.438960   -0.208578    0.039322
H     2.505123    0.856992    0.001957   -0.220628   -0.022941    0.006833
11
* Frequency(16)  802.2604
C     1.488612    0.499939   -0.002417   -0.320859    0.291182   -0.038148
C     1.114001   -0.783351    0.095811   -0.901223    0.568423   -0.070362
N     0.134131   -1.624819    0.137504   -0.349098    0.024745   -0.014182
C    -0.812624   -0.825351    0.048352    0.286603    0.225282   -0.003643
N    -0.627776    0.431194   -0.055101    0.393844   -0.231858    0.025774
C     0.450499    1.150773   -0.080279    0.057793   -0.318615    0.037868
O    -1.866566   -1.343903    0.060003    0.556923    0.063913    0.007738
O     0.421367    2.326290   -0.181560    0.096253   -0.494960    0.040476
H     2.065338   -1.335232    0.167819   -0.749102    0.820470   -0.087329
H    -1.475793    0.970971   -0.117724    0.438960   -0.208578    0.039322
H     2.511363    0.857640    0.001764   -0.220628   -0.022941    0.006833
11
* Frequency(16)  802.2604
C     1.508832    0.481590   -0.000013   -0.320859    0.291182   -0.038148
C     1.170794   -0.819171    0.100245   -0.901223    0.568423   -0.070362
N     0.156130   -1.626379    0.138398   -0.349098    0.024745   -0.014182
C    -0.830685   -0.839547    0.048582    0.286603    0.225282   -0.003643
N    -0.652595    0.445805   -0.056725    0.393844   -0.231858    0.025774
C     0.446857    1.170851   -0.082665    0.057793   -0.318615    0.037868
O    -1.901661   -1.347931    0.059515    0.556923    0.063913    0.007738
O     0.415301    2.357481   -0.184110    0.096253   -0.494960    0.040476
H     2.112545   -1.386936    0.173322   -0.749102    0.820470   -0.087329
H    -1.503455    0.984115   -0.120202    0.438960   -0.208578    0.039322
H     2.525267    0.859086    0.001334   -0.220628   -0.022941    0.006833
11
* Frequency(16)  802.2604
C     1.538005    0.455115    0.003456   -0.320859    0.291182   -0.038148
C     1.252735   -0.870853    0.106642   -0.901223    0.568423   -0.070362
N     0.187871   -1.628629    0.139687   -0.349098    0.024745   -0.014182
C    -0.856744   -0.860031    0.048913    0.286603    0.225282   -0.003643
N    -0.688404    0.466886   -0.059068    0.393844   -0.231858    0.025774
C     0.441602    1.199820   -0.086108    0.057793   -0.318615    0.037868
O    -1.952298   -1.353742    0.058812    0.556923    0.063913    0.007738
O     0.406550    2.402484   -0.187791    0.096253   -0.494960    0.040476
H     2.180654   -1.461535    0.181263   -0.749102    0.820470   -0.087329
H    -1.543366    1.003080   -0.123777    0.438960   -0.208578    0.039322
H     2.545327    0.861172    0.000712   -0.220628   -0.022941    0.006833
11
* Frequency(16)  802.2604
C     1.572970    0.423384    0.007613   -0.320859    0.291182   -0.038148
C     1.350944   -0.932796    0.114310   -0.901223    0.568423   -0.070362
N     0.225913   -1.631325    0.141233   -0.349098    0.024745   -0.014182
C    -0.887976   -0.884580    0.049310    0.286603    0.225282   -0.003643
N    -0.731323    0.492152   -0.061877    0.393844   -0.231858    0.025774
C     0.435304    1.234540   -0.090234    0.057793   -0.318615    0.037868
O    -2.012988   -1.360707    0.057969    0.556923    0.063913    0.007738
O     0.396061    2.456421   -0.192201    0.096253   -0.494960    0.040476
H     2.262287   -1.550944    0.190779   -0.749102    0.820470   -0.087329
H    -1.591201    1.025809   -0.128062    0.438960   -0.208578    0.039322
H     2.569369    0.863672   -0.000032   -0.220628   -0.022941    0.006833
11
* Frequency(16)  802.2604
C     1.609938    0.389835    0.012008   -0.320859    0.291182   -0.038148
C     1.454780   -0.998288    0.122417   -0.901223    0.568423   -0.070362
N     0.266135   -1.634176    0.142867   -0.349098    0.024745   -0.014182
C    -0.920997   -0.910536    0.049729    0.286603    0.225282   -0.003643
N    -0.776700    0.518866   -0.064847    0.393844   -0.231858    0.025774
C     0.428646    1.271250   -0.094597    0.057793   -0.318615    0.037868
O    -2.077154   -1.368071    0.057077    0.556923    0.063913    0.007738
O     0.384971    2.513449   -0.196865    0.096253   -0.494960    0.040476
H     2.348595   -1.645476    0.200841   -0.749102    0.820470   -0.087329
H    -1.641777    1.049841   -0.132593    0.438960   -0.208578    0.039322
H     2.594789    0.866315   -0.000820   -0.220628   -0.022941    0.006833
11
* Frequency(16)  802.2604
C     1.644904    0.358104    0.016165   -0.320859    0.291182   -0.038148
C     1.552989   -1.060231    0.130084   -0.901223    0.568423   -0.070362
N     0.304177   -1.636873    0.144412   -0.349098    0.024745   -0.014182
C    -0.952229   -0.935086    0.050126    0.286603    0.225282   -0.003643
N    -0.819618    0.544132   -0.067655    0.393844   -0.231858    0.025774
C     0.422348    1.305971   -0.098724    0.057793   -0.318615    0.037868
O    -2.137844   -1.375036    0.056234    0.556923    0.063913    0.007738
O     0.374482    2.567386   -0.201276    0.096253   -0.494960    0.040476
H     2.430228   -1.734885    0.210357   -0.749102    0.820470   -0.087329
H    -1.689612    1.072570   -0.136878    0.438960   -0.208578    0.039322
H     2.618832    0.868815   -0.001564   -0.220628   -0.022941    0.006833
11
* Frequency(16)  802.2604
C     1.674077    0.331629    0.019634   -0.320859    0.291182   -0.038148
C     1.634930   -1.111912    0.136482   -0.901223    0.568423   -0.070362
N     0.335918   -1.639122    0.145702   -0.349098    0.024745   -0.014182
C    -0.978288   -0.955569    0.050458    0.286603    0.225282   -0.003643
N    -0.855427    0.565213   -0.069999    0.393844   -0.231858    0.025774
C     0.417093    1.334940   -0.102167    0.057793   -0.318615    0.037868
O    -2.188480   -1.380847    0.055531    0.556923    0.063913    0.007738
O     0.365731    2.612389   -0.204956    0.096253   -0.494960    0.040476
H     2.498337   -1.809484    0.218297   -0.749102    0.820470   -0.087329
H    -1.729523    1.091534   -0.140453    0.438960   -0.208578    0.039322
H     2.638892    0.870901   -0.002185   -0.220628   -0.022941    0.006833
11
* Frequency(16)  802.2604
C     1.694296    0.313279    0.022038   -0.320859    0.291182   -0.038148
C     1.691723   -1.147733    0.140916   -0.901223    0.568423   -0.070362
N     0.357917   -1.640682    0.146595   -0.349098    0.024745   -0.014182
C    -0.996349   -0.969766    0.050687    0.286603    0.225282   -0.003643
N    -0.880246    0.579824   -0.071623    0.393844   -0.231858    0.025774
C     0.413451    1.355018   -0.104553    0.057793   -0.318615    0.037868
O    -2.223576   -1.384875    0.055043    0.556923    0.063913    0.007738
O     0.359665    2.643580   -0.207507    0.096253   -0.494960    0.040476
H     2.545544   -1.861188    0.223801   -0.749102    0.820470   -0.087329
H    -1.757185    1.104678   -0.142931    0.438960   -0.208578    0.039322
H     2.652795    0.872347   -0.002616   -0.220628   -0.022941    0.006833
11
* Frequency(16)  802.2604
C     1.703372    0.305044    0.023117   -0.320859    0.291182   -0.038148
C     1.717213   -1.163810    0.142906   -0.901223    0.568423   -0.070362
N     0.367791   -1.641382    0.146997   -0.349098    0.024745   -0.014182
C    -1.004455   -0.976138    0.050790    0.286603    0.225282   -0.003643
N    -0.891386    0.586382   -0.072352    0.393844   -0.231858    0.025774
C     0.411817    1.364030   -0.105625    0.057793   -0.318615    0.037868
O    -2.239328   -1.386682    0.054824    0.556923    0.063913    0.007738
O     0.356943    2.657579   -0.208651    0.096253   -0.494960    0.040476
H     2.566731   -1.884394    0.226271   -0.749102    0.820470   -0.087329
H    -1.769600    1.110578   -0.144044    0.438960   -0.208578    0.039322
H     2.659035    0.872996   -0.002809   -0.220628   -0.022941    0.006833
11
* Frequency(16)  802.2604
C     1.700319    0.307814    0.022754   -0.320859    0.291182   -0.038148
C     1.708638   -1.158402    0.142236   -0.901223    0.568423   -0.070362
N     0.364469   -1.641146    0.146862   -0.349098    0.024745   -0.014182
C    -1.001728   -0.973994    0.050756    0.286603    0.225282   -0.003643
N    -0.887639    0.584176   -0.072107    0.393844   -0.231858    0.025774
C     0.412366    1.360998   -0.105264    0.057793   -0.318615    0.037868
O    -2.234029   -1.386074    0.054898    0.556923    0.063913    0.007738
O     0.357859    2.652870   -0.208266    0.096253   -0.494960    0.040476
H     2.559604   -1.876588    0.225440   -0.749102    0.820470   -0.087329
H    -1.765424    1.108593   -0.143669    0.438960   -0.208578    0.039322
H     2.656936    0.872777   -0.002744   -0.220628   -0.022941    0.006833
11
* Frequency(16)  802.2604
C     1.685469    0.321291    0.020988   -0.320859    0.291182   -0.038148
C     1.666928   -1.132094    0.138980   -0.901223    0.568423   -0.070362
N     0.348313   -1.640001    0.146205   -0.349098    0.024745   -0.014182
C    -0.988463   -0.963568    0.050587    0.286603    0.225282   -0.003643
N    -0.869411    0.573445   -0.070914    0.393844   -0.231858    0.025774
C     0.415041    1.346252   -0.103512    0.057793   -0.318615    0.037868
O    -2.208254   -1.383116    0.055256    0.556923    0.063913    0.007738
O     0.362313    2.629962   -0.206393    0.096253   -0.494960    0.040476
H     2.524934   -1.838615    0.221398   -0.749102    0.820470   -0.087329
H    -1.745108    1.098940   -0.141849    0.438960   -0.208578    0.039322
H     2.646725    0.871716   -0.002428   -0.220628   -0.022941    0.006833
11
* Frequency(16)  802.2604
C     1.660431    0.344013    0.018011   -0.320859    0.291182   -0.038148
C     1.596602   -1.087738    0.133489   -0.901223    0.568423   -0.070362
N     0.321071   -1.638070    0.145099   -0.349098    0.024745   -0.014182
C    -0.966099   -0.945988    0.050303    0.286603    0.225282   -0.003643
N    -0.838678    0.555353   -0.068903    0.393844   -0.231858    0.025774
C     0.419551    1.321389   -0.100557    0.057793   -0.318615    0.037868
O    -2.164795   -1.378129    0.055860    0.556923    0.063913    0.007738
O     0.369824    2.591339   -0.203234    0.096253   -0.494960    0.040476
H     2.466479   -1.774590    0.214583   -0.749102    0.820470   -0.087329
H    -1.710854    1.082664   -0.138781    0.438960   -0.208578    0.039322
H     2.629509    0.869925   -0.001895   -0.220628   -0.022941    0.006833
11
* Frequency(16)  802.2604
C     1.627918    0.373518    0.014146   -0.320859    0.291182   -0.038148
C     1.505281   -1.030140    0.126360   -0.901223    0.568423   -0.070362
N     0.285697   -1.635563    0.143661   -0.349098    0.024745   -0.014182
C    -0.937057   -0.923160    0.049934    0.286603    0.225282   -0.003643
N    -0.798770    0.531859   -0.066291    0.393844   -0.231858    0.025774
C     0.425407    1.289104   -0.096719    0.057793   -0.318615    0.037868
O    -2.108362   -1.371652    0.056644    0.556923    0.063913    0.007738
O     0.379577    2.541184   -0.199133    0.096253   -0.494960    0.040476
H     2.390573   -1.691452    0.205734   -0.749102    0.820470   -0.087329
H    -1.666374    1.061529   -0.134797    0.438960   -0.208578    0.039322
H     2.607153    0.867601   -0.001202   -0.220628   -0.022941    0.006833
11
* Frequency(16)  802.2604
C     1.591454    0.406609    0.009810   -0.320859    0.291182   -0.038148
C     1.402862   -0.965542    0.118363   -0.901223    0.568423   -0.070362
N     0.246024   -1.632751    0.142050   -0.349098    0.024745   -0.014182
C    -0.904486   -0.897558    0.049520    0.286603    0.225282   -0.003643
N    -0.754011    0.505509   -0.063362    0.393844   -0.231858    0.025774
C     0.431975    1.252895   -0.092416    0.057793   -0.318615    0.037868
O    -2.045071   -1.364389    0.057523    0.556923    0.063913    0.007738
O     0.390516    2.484935   -0.194533    0.096253   -0.494960    0.040476
H     2.305441   -1.598210    0.195810   -0.749102    0.820470   -0.087329
H    -1.616489    1.037825   -0.130328    0.438960   -0.208578    0.039322
H     2.582079    0.864994   -0.000426   -0.220628   -0.022941    0.006833
