11
* (null), Energy   -1000.0000000
C     1.591454    0.406609    0.009810   -0.504298   -0.063961   -0.009678
C     1.402862   -0.965542    0.118363    0.171540   -0.064560    0.013281
N     0.246024   -1.632751    0.142050    0.095267    0.066244   -0.003212
C    -0.904486   -0.897558    0.049520   -0.113218    0.003000   -0.004214
N    -0.754011    0.505509   -0.063362    0.427534    0.152303   -0.000711
C     0.431975    1.252895   -0.092416    0.025591   -0.070480    0.006152
O    -2.045071   -1.364389    0.057523   -0.150100   -0.112474    0.005505
O     0.390516    2.484935   -0.194533   -0.027770   -0.054842    0.003829
H     2.305441   -1.598210    0.195810    0.417053    0.288102   -0.030336
H    -1.616489    1.037825   -0.130328    0.989073    1.051087   -0.059120
H     2.582079    0.864994   -0.000426   -0.838557    0.615024   -0.070209
11
* Frequency(20)  998.8187
C     1.534143    0.399340    0.008711   -0.504298   -0.063961   -0.009678
C     1.422357   -0.972879    0.119873    0.171540   -0.064560    0.013281
N     0.256850   -1.625222    0.141685    0.095267    0.066244   -0.003212
C    -0.917353   -0.897217    0.049041   -0.113218    0.003000   -0.004214
N    -0.705424    0.522818   -0.063443    0.427534    0.152303   -0.000711
C     0.434883    1.244886   -0.091717    0.025591   -0.070480    0.006152
O    -2.062129   -1.377171    0.058149   -0.150100   -0.112474    0.005505
O     0.387360    2.478702   -0.194098   -0.027770   -0.054842    0.003829
H     2.352837   -1.565469    0.192362    0.417053    0.288102   -0.030336
H    -1.504086    1.157275   -0.137046    0.989073    1.051087   -0.059120
H     2.486782    0.934888   -0.008405   -0.838557    0.615024   -0.070209
11
* Frequency(20)  998.8187
C     1.483043    0.392859    0.007730   -0.504298   -0.063961   -0.009678
C     1.439739   -0.979420    0.121218    0.171540   -0.064560    0.013281
N     0.266504   -1.618510    0.141359    0.095267    0.066244   -0.003212
C    -0.928825   -0.896913    0.048614   -0.113218    0.003000   -0.004214
N    -0.662102    0.538250   -0.063515    0.427534    0.152303   -0.000711
C     0.437476    1.237744   -0.091093    0.025591   -0.070480    0.006152
O    -2.077338   -1.388568    0.058706   -0.150100   -0.112474    0.005505
O     0.384546    2.473145   -0.193710   -0.027770   -0.054842    0.003829
H     2.395097   -1.536275    0.189288    0.417053    0.288102   -0.030336
H    -1.403863    1.263782   -0.143037    0.989073    1.051087   -0.059120
H     2.401811    0.997208   -0.015519   -0.838557    0.615024   -0.070209
11
* Frequency(20)  998.8187
C     1.443691    0.387868    0.006975   -0.504298   -0.063961   -0.009678
C     1.453124   -0.984458    0.122255    0.171540   -0.064560    0.013281
N     0.273938   -1.613341    0.141109    0.095267    0.066244   -0.003212
C    -0.937660   -0.896679    0.048285   -0.113218    0.003000   -0.004214
N    -0.628740    0.550135   -0.063570    0.427534    0.152303   -0.000711
C     0.439473    1.232244   -0.090613    0.025591   -0.070480    0.006152
O    -2.089051   -1.397345    0.059136   -0.150100   -0.112474    0.005505
O     0.382379    2.468866   -0.193411   -0.027770   -0.054842    0.003829
H     2.427641   -1.513794    0.186921    0.417053    0.288102   -0.030336
H    -1.326682    1.345802   -0.147650    0.989073    1.051087   -0.059120
H     2.336375    1.045201   -0.020998   -0.838557    0.615024   -0.070209
11
* Frequency(20)  998.8187
C     1.420351    0.384908    0.006527   -0.504298   -0.063961   -0.009678
C     1.461064   -0.987446    0.122869    0.171540   -0.064560    0.013281
N     0.278347   -1.610275    0.140960    0.095267    0.066244   -0.003212
C    -0.942900   -0.896540    0.048090   -0.113218    0.003000   -0.004214
N    -0.608953    0.557184   -0.063603    0.427534    0.152303   -0.000711
C     0.440658    1.228982   -0.090329    0.025591   -0.070480    0.006152
O    -2.095998   -1.402550    0.059391   -0.150100   -0.112474    0.005505
O     0.381094    2.466328   -0.193234   -0.027770   -0.054842    0.003829
H     2.446943   -1.500460    0.185517    0.417053    0.288102   -0.030336
H    -1.280906    1.394448   -0.150387    0.989073    1.051087   -0.059120
H     2.297565    1.073665   -0.024247   -0.838557    0.615024   -0.070209
11
* Frequency(20)  998.8187
C     1.415553    0.384299    0.006435   -0.504298   -0.063961   -0.009678
C     1.462696   -0.988060    0.122996    0.171540   -0.064560    0.013281
N     0.279253   -1.609644    0.140929    0.095267    0.066244   -0.003212
C    -0.943977   -0.896512    0.048050   -0.113218    0.003000   -0.004214
N    -0.604885    0.558633   -0.063610    0.427534    0.152303   -0.000711
C     0.440901    1.228311   -0.090270    0.025591   -0.070480    0.006152
O    -2.097426   -1.403620    0.059443   -0.150100   -0.112474    0.005505
O     0.380830    2.465806   -0.193197   -0.027770   -0.054842    0.003829
H     2.450911   -1.497719    0.185229    0.417053    0.288102   -0.030336
H    -1.271496    1.404449   -0.150949    0.989073    1.051087   -0.059120
H     2.289587    1.079517   -0.024915   -0.838557    0.615024   -0.070209
11
* Frequency(20)  998.8187
C     1.429816    0.386108    0.006709   -0.504298   -0.063961   -0.009678
C     1.457844   -0.986234    0.122620    0.171540   -0.064560    0.013281
N     0.276559   -1.611518    0.141020    0.095267    0.066244   -0.003212
C    -0.940775   -0.896597    0.048169   -0.113218    0.003000   -0.004214
N    -0.616978    0.554325   -0.063590    0.427534    0.152303   -0.000711
C     0.440178    1.230305   -0.090444    0.025591   -0.070480    0.006152
O    -2.093181   -1.400439    0.059287   -0.150100   -0.112474    0.005505
O     0.381615    2.467357   -0.193306   -0.027770   -0.054842    0.003829
H     2.439115   -1.505867    0.186087    0.417053    0.288102   -0.030336
H    -1.299471    1.374720   -0.149277    0.989073    1.051087   -0.059120
H     2.313304    1.062122   -0.022929   -0.838557    0.615024   -0.070209
11
* Frequency(20)  998.8187
C     1.461596    0.390139    0.007318   -0.504298   -0.063961   -0.009678
C     1.447034   -0.982166    0.121783    0.171540   -0.064560    0.013281
N     0.270555   -1.615693    0.141223    0.095267    0.066244   -0.003212
C    -0.933640   -0.896786    0.048434   -0.113218    0.003000   -0.004214
N    -0.643920    0.544728   -0.063545    0.427534    0.152303   -0.000711
C     0.438565    1.234746   -0.090832    0.025591   -0.070480    0.006152
O    -2.083722   -1.393351    0.058941   -0.150100   -0.112474    0.005505
O     0.383365    2.470813   -0.193547   -0.027770   -0.054842    0.003829
H     2.412834   -1.524023    0.187998    0.417053    0.288102   -0.030336
H    -1.361799    1.308483   -0.145551    0.989073    1.051087   -0.059120
H     2.366148    1.023364   -0.018505   -0.838557    0.615024   -0.070209
11
* Frequency(20)  998.8187
C     1.507448    0.395955    0.008198   -0.504298   -0.063961   -0.009678
C     1.431437   -0.976296    0.120576    0.171540   -0.064560    0.013281
N     0.261894   -1.621716    0.141515    0.095267    0.066244   -0.003212
C    -0.923346   -0.897059    0.048818   -0.113218    0.003000   -0.004214
N    -0.682792    0.530880   -0.063480    0.427534    0.152303   -0.000711
C     0.436238    1.241155   -0.091391    0.025591   -0.070480    0.006152
O    -2.070075   -1.383125    0.058440   -0.150100   -0.112474    0.005505
O     0.385890    2.475799   -0.193895   -0.027770   -0.054842    0.003829
H     2.374914   -1.550217    0.190757    0.417053    0.288102   -0.030336
H    -1.451728    1.212916   -0.140176    0.989073    1.051087   -0.059120
H     2.442391    0.967445   -0.012121   -0.838557    0.615024   -0.070209
11
* Frequency(20)  998.8187
C     1.562403    0.402925    0.009253   -0.504298   -0.063961   -0.009678
C     1.412744   -0.969261    0.119128    0.171540   -0.064560    0.013281
N     0.251512   -1.628934    0.141865    0.095267    0.066244   -0.003212
C    -0.911009   -0.897385    0.049277   -0.113218    0.003000   -0.004214
N    -0.729382    0.514283   -0.063403    0.427534    0.152303   -0.000711
C     0.433449    1.248835   -0.092062    0.025591   -0.070480    0.006152
O    -2.053718   -1.370868    0.057840   -0.150100   -0.112474    0.005505
O     0.388916    2.481775   -0.194312   -0.027770   -0.054842    0.003829
H     2.329467   -1.581613    0.194062    0.417053    0.288102   -0.030336
H    -1.559510    1.098376   -0.133734    0.989073    1.051087   -0.059120
H     2.533772    0.900424   -0.004471   -0.838557    0.615024   -0.070209
11
* Frequency(20)  998.8187
C     1.620506    0.410294    0.010368   -0.504298   -0.063961   -0.009678
C     1.392980   -0.961823    0.117598    0.171540   -0.064560    0.013281
N     0.240536   -1.636567    0.142235    0.095267    0.066244   -0.003212
C    -0.897964   -0.897731    0.049762   -0.113218    0.003000   -0.004214
N    -0.778641    0.496735   -0.063321    0.427534    0.152303   -0.000711
C     0.430501    1.256955   -0.092770    0.025591   -0.070480    0.006152
O    -2.036424   -1.357910    0.057206   -0.150100   -0.112474    0.005505
O     0.392116    2.488094   -0.194754   -0.027770   -0.054842    0.003829
H     2.281415   -1.614807    0.197558    0.417053    0.288102   -0.030336
H    -1.673467    0.977274   -0.126922    0.989073    1.051087   -0.059120
H     2.630387    0.829563    0.003619   -0.838557    0.615024   -0.070209
11
* Frequency(20)  998.8187
C     1.675461    0.417264    0.011423   -0.504298   -0.063961   -0.009678
C     1.374287   -0.954787    0.116151    0.171540   -0.064560    0.013281
N     0.230154   -1.643786    0.142585    0.095267    0.066244   -0.003212
C    -0.885627   -0.898058    0.050222   -0.113218    0.003000   -0.004214
N    -0.825231    0.480138   -0.063243    0.427534    0.152303   -0.000711
C     0.427712    1.264636   -0.093441    0.025591   -0.070480    0.006152
O    -2.020067   -1.345653    0.056606   -0.150100   -0.112474    0.005505
O     0.395142    2.494070   -0.195171   -0.027770   -0.054842    0.003829
H     2.235968   -1.646203    0.200863    0.417053    0.288102   -0.030336
H    -1.781250    0.862733   -0.120479    0.989073    1.051087   -0.059120
H     2.721767    0.762542    0.011270   -0.838557    0.615024   -0.070209
11
* Frequency(20)  998.8187
C     1.721313    0.423079    0.012303   -0.504298   -0.063961   -0.009678
C     1.358690   -0.948917    0.114943    0.171540   -0.064560    0.013281
N     0.221492   -1.649809    0.142877    0.095267    0.066244   -0.003212
C    -0.875333   -0.898331    0.050605   -0.113218    0.003000   -0.004214
N    -0.864103    0.466291   -0.063179    0.427534    0.152303   -0.000711
C     0.425385    1.271044   -0.094000    0.025591   -0.070480    0.006152
O    -2.006420   -1.335427    0.056105   -0.150100   -0.112474    0.005505
O     0.397667    2.499057   -0.195519   -0.027770   -0.054842    0.003829
H     2.198048   -1.672397    0.203622    0.417053    0.288102   -0.030336
H    -1.871179    0.767166   -0.115104    0.989073    1.051087   -0.059120
H     2.798011    0.706623    0.017653   -0.838557    0.615024   -0.070209
11
* Frequency(20)  998.8187
C     1.753092    0.427110    0.012912   -0.504298   -0.063961   -0.009678
C     1.347880   -0.944849    0.114107    0.171540   -0.064560    0.013281
N     0.215489   -1.653983    0.143079    0.095267    0.066244   -0.003212
C    -0.868198   -0.898520    0.050870   -0.113218    0.003000   -0.004214
N    -0.891045    0.456693   -0.063134    0.427534    0.152303   -0.000711
C     0.423773    1.275485   -0.094388    0.025591   -0.070480    0.006152
O    -1.996961   -1.328339    0.055759   -0.150100   -0.112474    0.005505
O     0.399417    2.502513   -0.195760   -0.027770   -0.054842    0.003829
H     2.171767   -1.690553    0.205533    0.417053    0.288102   -0.030336
H    -1.933507    0.700930   -0.111378    0.989073    1.051087   -0.059120
H     2.850854    0.667866    0.022077   -0.838557    0.615024   -0.070209
11
* Frequency(20)  998.8187
C     1.767356    0.428919    0.013186   -0.504298   -0.063961   -0.009678
C     1.343028   -0.943023    0.113731    0.171540   -0.064560    0.013281
N     0.212794   -1.655857    0.143170    0.095267    0.066244   -0.003212
C    -0.864996   -0.898605    0.050990   -0.113218    0.003000   -0.004214
N    -0.903137    0.452385   -0.063114    0.427534    0.152303   -0.000711
C     0.423049    1.277479   -0.094562    0.025591   -0.070480    0.006152
O    -1.992715   -1.325158    0.055603   -0.150100   -0.112474    0.005505
O     0.400202    2.504064   -0.195869   -0.027770   -0.054842    0.003829
H     2.159971   -1.698701    0.206391    0.417053    0.288102   -0.030336
H    -1.961482    0.671201   -0.109706    0.989073    1.051087   -0.059120
H     2.874572    0.650470    0.024063   -0.838557    0.615024   -0.070209
11
* Frequency(20)  998.8187
C     1.762558    0.428310    0.013094   -0.504298   -0.063961   -0.009678
C     1.344660   -0.943637    0.113857    0.171540   -0.064560    0.013281
N     0.213701   -1.655226    0.143139    0.095267    0.066244   -0.003212
C    -0.866073   -0.898576    0.050949   -0.113218    0.003000   -0.004214
N    -0.899069    0.453834   -0.063120    0.427534    0.152303   -0.000711
C     0.423292    1.276808   -0.094503    0.025591   -0.070480    0.006152
O    -1.994143   -1.326228    0.055655   -0.150100   -0.112474    0.005505
O     0.399938    2.503542   -0.195832   -0.027770   -0.054842    0.003829
H     2.163939   -1.695960    0.206103    0.417053    0.288102   -0.030336
H    -1.952072    0.681202   -0.110269    0.989073    1.051087   -0.059120
H     2.866593    0.656322    0.023395   -0.838557    0.615024   -0.070209
11
* Frequency(20)  998.8187
C     1.739218    0.425350    0.012646   -0.504298   -0.063961   -0.009678
C     1.352599   -0.946625    0.114472    0.171540   -0.064560    0.013281
N     0.218110   -1.652161    0.142991    0.095267    0.066244   -0.003212
C    -0.871313   -0.898437    0.050754   -0.113218    0.003000   -0.004214
N    -0.879282    0.460883   -0.063153    0.427534    0.152303   -0.000711
C     0.424477    1.273546   -0.094219    0.025591   -0.070480    0.006152
O    -2.001090   -1.331433    0.055910   -0.150100   -0.112474    0.005505
O     0.398653    2.501004   -0.195655   -0.027770   -0.054842    0.003829
H     2.183241   -1.682626    0.204699    0.417053    0.288102   -0.030336
H    -1.906295    0.729848   -0.113005    0.989073    1.051087   -0.059120
H     2.827783    0.684786    0.020146   -0.838557    0.615024   -0.070209
11
* Frequency(20)  998.8187
C     1.699866    0.420359    0.011891   -0.504298   -0.063961   -0.009678
C     1.365985   -0.951663    0.115508    0.171540   -0.064560    0.013281
N     0.225544   -1.646991    0.142740    0.095267    0.066244   -0.003212
C    -0.880148   -0.898203    0.050426   -0.113218    0.003000   -0.004214
N    -0.845920    0.472768   -0.063209    0.427534    0.152303   -0.000711
C     0.426474    1.268047   -0.093739    0.025591   -0.070480    0.006152
O    -2.012803   -1.340210    0.056340   -0.150100   -0.112474    0.005505
O     0.396486    2.496724   -0.195356   -0.027770   -0.054842    0.003829
H     2.215785   -1.660145    0.202332    0.417053    0.288102   -0.030336
H    -1.829114    0.811868   -0.117618    0.989073    1.051087   -0.059120
H     2.762348    0.732779    0.014667   -0.838557    0.615024   -0.070209
11
* Frequency(20)  998.8187
C     1.648765    0.413878    0.010910   -0.504298   -0.063961   -0.009678
C     1.383367   -0.958205    0.116854    0.171540   -0.064560    0.013281
N     0.235197   -1.640279    0.142415    0.095267    0.066244   -0.003212
C    -0.891620   -0.897899    0.049999   -0.113218    0.003000   -0.004214
N    -0.802598    0.488201   -0.063281    0.427534    0.152303   -0.000711
C     0.429067    1.260905   -0.093115    0.025591   -0.070480    0.006152
O    -2.028013   -1.351607    0.056897   -0.150100   -0.112474    0.005505
O     0.393672    2.491167   -0.194968   -0.027770   -0.054842    0.003829
H     2.258045   -1.630951    0.199258    0.417053    0.288102   -0.030336
H    -1.728892    0.918374   -0.123609    0.989073    1.051087   -0.059120
H     2.677377    0.795099    0.007553   -0.838557    0.615024   -0.070209
11
* Frequency(20)  998.8187
C     1.591454    0.406609    0.009810   -0.504298   -0.063961   -0.009678
C     1.402862   -0.965542    0.118363    0.171540   -0.064560    0.013281
N     0.246024   -1.632751    0.142050    0.095267    0.066244   -0.003212
C    -0.904486   -0.897558    0.049520   -0.113218    0.003000   -0.004214
N    -0.754011    0.505509   -0.063362    0.427534    0.152303   -0.000711
C     0.431975    1.252895   -0.092416    0.025591   -0.070480    0.006152
O    -2.045071   -1.364389    0.057523   -0.150100   -0.112474    0.005505
O     0.390516    2.484935   -0.194533   -0.027770   -0.054842    0.003829
H     2.305441   -1.598210    0.195810    0.417053    0.288102   -0.030336
H    -1.616489    1.037825   -0.130328    0.989073    1.051087   -0.059120
H     2.582079    0.864994   -0.000426   -0.838557    0.615024   -0.070209
