11
* (null), Energy   -1000.0000000
C     1.591454    0.406609    0.009810    0.105272   -0.286564    0.026611
C     1.402862   -0.965542    0.118363    0.018021    0.046463   -0.003330
N     0.246024   -1.632751    0.142050    0.237258    0.002429    0.006215
C    -0.904486   -0.897558    0.049520   -1.310281   -0.322451   -0.008500
N    -0.754011    0.505509   -0.063362    0.165184   -0.044979    0.008180
C     0.431975    1.252895   -0.092416   -0.222364    0.947031   -0.083962
O    -2.045071   -1.364389    0.057523    0.682407    0.273445   -0.004353
O     0.390516    2.484935   -0.194533    0.033682   -0.525276    0.043983
H     2.305441   -1.598210    0.195810   -0.005135   -0.086642    0.007181
H    -1.616489    1.037825   -0.130328   -0.029313   -0.263693    0.021318
H     2.582079    0.864994   -0.000426   -0.130189    0.357352   -0.033187
11
* Frequency(29) 1766.4975
C     1.603418    0.374043    0.012835    0.105272   -0.286564    0.026611
C     1.404910   -0.960261    0.117985    0.018021    0.046463   -0.003330
N     0.272987   -1.632475    0.142756    0.237258    0.002429    0.006215
C    -1.053393   -0.934203    0.048554   -1.310281   -0.322451   -0.008500
N    -0.735239    0.500397   -0.062432    0.165184   -0.044979    0.008180
C     0.406705    1.360520   -0.101958   -0.222364    0.947031   -0.083962
O    -1.967519   -1.333313    0.057028    0.682407    0.273445   -0.004353
O     0.394344    2.425240   -0.189535    0.033682   -0.525276    0.043983
H     2.304857   -1.608056    0.196626   -0.005135   -0.086642    0.007181
H    -1.619820    1.007858   -0.127905   -0.029313   -0.263693    0.021318
H     2.567284    0.905605   -0.004197   -0.130189    0.357352   -0.033187
11
* Frequency(29) 1766.4975
C     1.614085    0.345005    0.015531    0.105272   -0.286564    0.026611
C     1.406736   -0.955553    0.117647    0.018021    0.046463   -0.003330
N     0.297028   -1.632228    0.143386    0.237258    0.002429    0.006215
C    -1.186163   -0.966877    0.047692   -1.310281   -0.322451   -0.008500
N    -0.718501    0.495840   -0.061603    0.165184   -0.044979    0.008180
C     0.384173    1.456483   -0.110466   -0.222364    0.947031   -0.083962
O    -1.898371   -1.305605    0.056587    0.682407    0.273445   -0.004353
O     0.397757    2.372014   -0.185078    0.033682   -0.525276    0.043983
H     2.304337   -1.616836    0.197354   -0.005135   -0.086642    0.007181
H    -1.622790    0.981138   -0.125745   -0.029313   -0.263693    0.021318
H     2.554092    0.941815   -0.007560   -0.130189    0.357352   -0.033187
11
* Frequency(29) 1766.4975
C     1.622300    0.322644    0.017608    0.105272   -0.286564    0.026611
C     1.408142   -0.951928    0.117388    0.018021    0.046463   -0.003330
N     0.315542   -1.632039    0.143871    0.237258    0.002429    0.006215
C    -1.288410   -0.992039    0.047029   -1.310281   -0.322451   -0.008500
N    -0.705611    0.492330   -0.060965    0.165184   -0.044979    0.008180
C     0.366821    1.530383   -0.117018   -0.222364    0.947031   -0.083962
O    -1.845120   -1.284267    0.056248    0.682407    0.273445   -0.004353
O     0.400385    2.331025   -0.181646    0.033682   -0.525276    0.043983
H     2.303936   -1.623597    0.197914   -0.005135   -0.086642    0.007181
H    -1.625078    0.960561   -0.124081   -0.029313   -0.263693    0.021318
H     2.543933    0.969701   -0.010150   -0.130189    0.357352   -0.033187
11
* Frequency(29) 1766.4975
C     1.627172    0.309381    0.018839    0.105272   -0.286564    0.026611
C     1.408976   -0.949777    0.117233    0.018021    0.046463   -0.003330
N     0.326523   -1.631926    0.144158    0.237258    0.002429    0.006215
C    -1.349052   -1.006963    0.046635   -1.310281   -0.322451   -0.008500
N    -0.697966    0.490248   -0.060586    0.165184   -0.044979    0.008180
C     0.356529    1.574214   -0.120904   -0.222364    0.947031   -0.083962
O    -1.813537   -1.271612    0.056046    0.682407    0.273445   -0.004353
O     0.401944    2.306714   -0.179610    0.033682   -0.525276    0.043983
H     2.303699   -1.627607    0.198247   -0.005135   -0.086642    0.007181
H    -1.626434    0.948357   -0.123095   -0.029313   -0.263693    0.021318
H     2.537908    0.986240   -0.011686   -0.130189    0.357352   -0.033187
11
* Frequency(29) 1766.4975
C     1.628174    0.306654    0.019092    0.105272   -0.286564    0.026611
C     1.409148   -0.949335    0.117202    0.018021    0.046463   -0.003330
N     0.328780   -1.631903    0.144217    0.237258    0.002429    0.006215
C    -1.361519   -1.010031    0.046555   -1.310281   -0.322451   -0.008500
N    -0.696394    0.489820   -0.060509    0.165184   -0.044979    0.008180
C     0.354414    1.583224   -0.121702   -0.222364    0.947031   -0.083962
O    -1.807044   -1.269010    0.056005    0.682407    0.273445   -0.004353
O     0.402264    2.301716   -0.179192    0.033682   -0.525276    0.043983
H     2.303650   -1.628431    0.198315   -0.005135   -0.086642    0.007181
H    -1.626713    0.945848   -0.122892   -0.029313   -0.263693    0.021318
H     2.536669    0.989640   -0.012002   -0.130189    0.357352   -0.033187
11
* Frequency(29) 1766.4975
C     1.625196    0.314759    0.018340    0.105272   -0.286564    0.026611
C     1.408638   -0.950649    0.117296    0.018021    0.046463   -0.003330
N     0.322070   -1.631972    0.144042    0.237258    0.002429    0.006215
C    -1.324459   -1.000911    0.046795   -1.310281   -0.322451   -0.008500
N    -0.701066    0.491092   -0.060740    0.165184   -0.044979    0.008180
C     0.360703    1.556438   -0.119328   -0.222364    0.947031   -0.083962
O    -1.826345   -1.276744    0.056128    0.682407    0.273445   -0.004353
O     0.401312    2.316573   -0.180436    0.033682   -0.525276    0.043983
H     2.303795   -1.625980    0.198112   -0.005135   -0.086642    0.007181
H    -1.625884    0.953306   -0.123495   -0.029313   -0.263693    0.021318
H     2.540351    0.979532   -0.011063   -0.130189    0.357352   -0.033187
11
* Frequency(29) 1766.4975
C     1.618562    0.332818    0.016663    0.105272   -0.286564    0.026611
C     1.407502   -0.953577    0.117506    0.018021    0.046463   -0.003330
N     0.307118   -1.632125    0.143650    0.237258    0.002429    0.006215
C    -1.241888   -0.980591    0.047331   -1.310281   -0.322451   -0.008500
N    -0.711476    0.493927   -0.061255    0.165184   -0.044979    0.008180
C     0.374716    1.496759   -0.114037   -0.222364    0.947031   -0.083962
O    -1.869349   -1.293976    0.056402    0.682407    0.273445   -0.004353
O     0.399189    2.349674   -0.183207    0.033682   -0.525276    0.043983
H     2.304119   -1.620521    0.197659   -0.005135   -0.086642    0.007181
H    -1.624037    0.969923   -0.124838   -0.029313   -0.263693    0.021318
H     2.548555    0.957013   -0.008972   -0.130189    0.357352   -0.033187
11
* Frequency(29) 1766.4975
C     1.608991    0.358873    0.014243    0.105272   -0.286564    0.026611
C     1.405864   -0.957802    0.117809    0.018021    0.046463   -0.003330
N     0.285547   -1.632346    0.143085    0.237258    0.002429    0.006215
C    -1.122755   -0.951273    0.048104   -1.310281   -0.322451   -0.008500
N    -0.726495    0.498016   -0.061999    0.165184   -0.044979    0.008180
C     0.394933    1.410653   -0.106403   -0.222364    0.947031   -0.083962
O    -1.931394   -1.318838    0.056798    0.682407    0.273445   -0.004353
O     0.396127    2.397433   -0.187206    0.033682   -0.525276    0.043983
H     2.304586   -1.612643    0.197006   -0.005135   -0.086642    0.007181
H    -1.621372    0.993898   -0.126777   -0.029313   -0.263693    0.021318
H     2.560392    0.924522   -0.005954   -0.130189    0.357352   -0.033187
11
* Frequency(29) 1766.4975
C     1.597519    0.390101    0.011343    0.105272   -0.286564    0.026611
C     1.403900   -0.962865    0.118171    0.018021    0.046463   -0.003330
N     0.259692   -1.632611    0.142408    0.237258    0.002429    0.006215
C    -0.979969   -0.916134    0.049030   -1.310281   -0.322451   -0.008500
N    -0.744495    0.502918   -0.062891    0.165184   -0.044979    0.008180
C     0.419165    1.307452   -0.097253   -0.222364    0.947031   -0.083962
O    -2.005759   -1.348636    0.057272    0.682407    0.273445   -0.004353
O     0.392456    2.454675   -0.191999    0.033682   -0.525276    0.043983
H     2.305145   -1.603201    0.196224   -0.005135   -0.086642    0.007181
H    -1.618178    1.022634   -0.129100   -0.029313   -0.263693    0.021318
H     2.574579    0.885580   -0.002338   -0.130189    0.357352   -0.033187
11
* Frequency(29) 1766.4975
C     1.585390    0.423118    0.008277    0.105272   -0.286564    0.026611
C     1.401824   -0.968218    0.118555    0.018021    0.046463   -0.003330
N     0.232356   -1.632891    0.141692    0.237258    0.002429    0.006215
C    -0.829004   -0.878982    0.050009   -1.310281   -0.322451   -0.008500
N    -0.763527    0.508100   -0.063833    0.165184   -0.044979    0.008180
C     0.444785    1.198339   -0.087579   -0.222364    0.947031   -0.083962
O    -2.084383   -1.380142    0.057774    0.682407    0.273445   -0.004353
O     0.388576    2.515195   -0.197067    0.033682   -0.525276    0.043983
H     2.305737   -1.593219    0.195396   -0.005135   -0.086642    0.007181
H    -1.614800    1.053016   -0.131556   -0.029313   -0.263693    0.021318
H     2.589579    0.844407    0.001486   -0.130189    0.357352   -0.033187
11
* Frequency(29) 1766.4975
C     1.573918    0.454346    0.005378    0.105272   -0.286564    0.026611
C     1.399860   -0.973282    0.118918    0.018021    0.046463   -0.003330
N     0.206501   -1.633155    0.141014    0.237258    0.002429    0.006215
C    -0.686218   -0.843844    0.050936   -1.310281   -0.322451   -0.008500
N    -0.781528    0.513002   -0.064724    0.165184   -0.044979    0.008180
C     0.469017    1.095137   -0.078429   -0.222364    0.947031   -0.083962
O    -2.158747   -1.409940    0.058248    0.682407    0.273445   -0.004353
O     0.384905    2.572436   -0.201860    0.033682   -0.525276    0.043983
H     2.306296   -1.583777    0.194614   -0.005135   -0.086642    0.007181
H    -1.611606    1.081751   -0.133879   -0.029313   -0.263693    0.021318
H     2.603766    0.805465    0.005102   -0.130189    0.357352   -0.033187
11
* Frequency(29) 1766.4975
C     1.564346    0.480400    0.002958    0.105272   -0.286564    0.026611
C     1.398222   -0.977506    0.119221    0.018021    0.046463   -0.003330
N     0.184929   -1.633376    0.140449    0.237258    0.002429    0.006215
C    -0.567085   -0.814526    0.051708   -1.310281   -0.322451   -0.008500
N    -0.796547    0.517092   -0.065468    0.165184   -0.044979    0.008180
C     0.489235    1.009031   -0.070795   -0.222364    0.947031   -0.083962
O    -2.220793   -1.434802    0.058644    0.682407    0.273445   -0.004353
O     0.381843    2.620195   -0.205859    0.033682   -0.525276    0.043983
H     2.306763   -1.575899    0.193961   -0.005135   -0.086642    0.007181
H    -1.608941    1.105727   -0.135817   -0.029313   -0.263693    0.021318
H     2.615603    0.772974    0.008120   -0.130189    0.357352   -0.033187
11
* Frequency(29) 1766.4975
C     1.557713    0.498459    0.001281    0.105272   -0.286564    0.026611
C     1.397086   -0.980434    0.119431    0.018021    0.046463   -0.003330
N     0.169978   -1.633529    0.140058    0.237258    0.002429    0.006215
C    -0.484514   -0.794206    0.052244   -1.310281   -0.322451   -0.008500
N    -0.806956    0.519926   -0.065984    0.165184   -0.044979    0.008180
C     0.503247    0.949352   -0.065504   -0.222364    0.947031   -0.083962
O    -2.263796   -1.452034    0.058918    0.682407    0.273445   -0.004353
O     0.379720    2.653297   -0.208631    0.033682   -0.525276    0.043983
H     2.307087   -1.570440    0.193508   -0.005135   -0.086642    0.007181
H    -1.607093    1.122344   -0.137161   -0.029313   -0.263693    0.021318
H     2.623807    0.750455    0.010211   -0.130189    0.357352   -0.033187
11
* Frequency(29) 1766.4975
C     1.554735    0.506564    0.000529    0.105272   -0.286564    0.026611
C     1.396576   -0.981748    0.119525    0.018021    0.046463   -0.003330
N     0.163267   -1.633598    0.139882    0.237258    0.002429    0.006215
C    -0.447454   -0.785086    0.052485   -1.310281   -0.322451   -0.008500
N    -0.811628    0.521198   -0.066215    0.165184   -0.044979    0.008180
C     0.509537    0.922566   -0.063130   -0.222364    0.947031   -0.083962
O    -2.283097   -1.459768    0.059041    0.682407    0.273445   -0.004353
O     0.378768    2.668154   -0.209875    0.033682   -0.525276    0.043983
H     2.307232   -1.567989    0.193305   -0.005135   -0.086642    0.007181
H    -1.606264    1.129802   -0.137763   -0.029313   -0.263693    0.021318
H     2.627490    0.740348    0.011150   -0.130189    0.357352   -0.033187
11
* Frequency(29) 1766.4975
C     1.555737    0.503838    0.000782    0.105272   -0.286564    0.026611
C     1.396748   -0.981306    0.119493    0.018021    0.046463   -0.003330
N     0.165525   -1.633575    0.139941    0.237258    0.002429    0.006215
C    -0.459921   -0.788154    0.052404   -1.310281   -0.322451   -0.008500
N    -0.810056    0.520770   -0.066137    0.165184   -0.044979    0.008180
C     0.507421    0.931577   -0.063928   -0.222364    0.947031   -0.083962
O    -2.276605   -1.457166    0.059000    0.682407    0.273445   -0.004353
O     0.379088    2.663156   -0.209456    0.033682   -0.525276    0.043983
H     2.307183   -1.568813    0.193373   -0.005135   -0.086642    0.007181
H    -1.606543    1.127293   -0.137561   -0.029313   -0.263693    0.021318
H     2.626251    0.743748    0.010834   -0.130189    0.357352   -0.033187
11
* Frequency(29) 1766.4975
C     1.560609    0.490575    0.002013    0.105272   -0.286564    0.026611
C     1.397582   -0.979156    0.119339    0.018021    0.046463   -0.003330
N     0.176505   -1.633462    0.140229    0.237258    0.002429    0.006215
C    -0.520563   -0.803077    0.052010   -1.310281   -0.322451   -0.008500
N    -0.802411    0.518689   -0.065759    0.165184   -0.044979    0.008180
C     0.497130    0.975407   -0.067814   -0.222364    0.947031   -0.083962
O    -2.245022   -1.444511    0.058798    0.682407    0.273445   -0.004353
O     0.380647    2.638845   -0.207420    0.033682   -0.525276    0.043983
H     2.306946   -1.572823    0.193706   -0.005135   -0.086642    0.007181
H    -1.607900    1.115089   -0.136574   -0.029313   -0.263693    0.021318
H     2.620226    0.760286    0.009298   -0.130189    0.357352   -0.033187
11
* Frequency(29) 1766.4975
C     1.568824    0.468213    0.004090    0.105272   -0.286564    0.026611
C     1.398988   -0.975530    0.119079    0.018021    0.046463   -0.003330
N     0.195020   -1.633273    0.140714    0.237258    0.002429    0.006215
C    -0.622810   -0.828239    0.051347   -1.310281   -0.322451   -0.008500
N    -0.789522    0.515179   -0.065120    0.165184   -0.044979    0.008180
C     0.479778    1.049308   -0.074366   -0.222364    0.947031   -0.083962
O    -2.191771   -1.423173    0.058459    0.682407    0.273445   -0.004353
O     0.383275    2.597856   -0.203988    0.033682   -0.525276    0.043983
H     2.306545   -1.579584    0.194266   -0.005135   -0.086642    0.007181
H    -1.610187    1.094512   -0.134910   -0.029313   -0.263693    0.021318
H     2.610067    0.788172    0.006708   -0.130189    0.357352   -0.033187
11
* Frequency(29) 1766.4975
C     1.579491    0.439176    0.006786    0.105272   -0.286564    0.026611
C     1.400814   -0.970822    0.118742    0.018021    0.046463   -0.003330
N     0.219061   -1.633027    0.141343    0.237258    0.002429    0.006215
C    -0.755580   -0.860913    0.050486   -1.310281   -0.322451   -0.008500
N    -0.772783    0.510621   -0.064291    0.165184   -0.044979    0.008180
C     0.457246    1.145270   -0.082874   -0.222364    0.947031   -0.083962
O    -2.122623   -1.395465    0.058018    0.682407    0.273445   -0.004353
O     0.386688    2.544630   -0.199532    0.033682   -0.525276    0.043983
H     2.306025   -1.588364    0.194994   -0.005135   -0.086642    0.007181
H    -1.613158    1.067792   -0.132750   -0.029313   -0.263693    0.021318
H     2.596875    0.824382    0.003346   -0.130189    0.357352   -0.033187
11
* Frequency(29) 1766.4975
C     1.591454    0.406609    0.009810    0.105272   -0.286564    0.026611
C     1.402862   -0.965542    0.118363    0.018021    0.046463   -0.003330
N     0.246024   -1.632751    0.142050    0.237258    0.002429    0.006215
C    -0.904486   -0.897558    0.049520   -1.310281   -0.322451   -0.008500
N    -0.754011    0.505509   -0.063362    0.165184   -0.044979    0.008180
C     0.431975    1.252895   -0.092416   -0.222364    0.947031   -0.083962
O    -2.045071   -1.364389    0.057523    0.682407    0.273445   -0.004353
O     0.390516    2.484935   -0.194533    0.033682   -0.525276    0.043983
H     2.305441   -1.598210    0.195810   -0.005135   -0.086642    0.007181
H    -1.616489    1.037825   -0.130328   -0.029313   -0.263693    0.021318
H     2.582079    0.864994   -0.000426   -0.130189    0.357352   -0.033187
