11
* (null), Energy   -1000.0000000
C     1.591454    0.406609    0.009810    0.003481   -0.011220   -0.133389
C     1.402862   -0.965542    0.118363   -0.001405    0.003898    0.048881
N     0.246024   -1.632751    0.142050    0.002137   -0.006541   -0.081529
C    -0.904486   -0.897558    0.049520   -0.001057    0.003926    0.042850
N    -0.754011    0.505509   -0.063362   -0.003593    0.011214    0.135918
C     0.431975    1.252895   -0.092416   -0.001282    0.003433    0.042762
O    -2.045071   -1.364389    0.057523   -0.000328    0.001929    0.023447
O     0.390516    2.484935   -0.194533   -0.000669    0.001756    0.022352
H     2.305441   -1.598210    0.195810   -0.005894    0.017223    0.210159
H    -1.616489    1.037825   -0.130328    0.052288   -0.161482   -1.953140
H     2.582079    0.864994   -0.000426   -0.007223    0.020415    0.247129
11
* Frequency(13)  700.9677
C     1.591850    0.405334   -0.005349    0.003481   -0.011220   -0.133389
C     1.402702   -0.965099    0.123918   -0.001405    0.003898    0.048881
N     0.246267   -1.633494    0.132784    0.002137   -0.006541   -0.081529
C    -0.904607   -0.897112    0.054389   -0.001057    0.003926    0.042850
N    -0.754420    0.506784   -0.047915   -0.003593    0.011214    0.135918
C     0.431829    1.253285   -0.087556   -0.001282    0.003433    0.042762
O    -2.045108   -1.364170    0.060188   -0.000328    0.001929    0.023447
O     0.390440    2.485134   -0.191993   -0.000669    0.001756    0.022352
H     2.304771   -1.596253    0.219694   -0.005894    0.017223    0.210159
H    -1.610547    1.019473   -0.352292    0.052288   -0.161482   -1.953140
H     2.581258    0.867314    0.027659   -0.007223    0.020415    0.247129
11
* Frequency(13)  700.9677
C     1.592203    0.404197   -0.018865    0.003481   -0.011220   -0.133389
C     1.402560   -0.964704    0.128872   -0.001405    0.003898    0.048881
N     0.246483   -1.634157    0.124523    0.002137   -0.006541   -0.081529
C    -0.904714   -0.896714    0.058731   -0.001057    0.003926    0.042850
N    -0.754784    0.507920   -0.034143   -0.003593    0.011214    0.135918
C     0.431700    1.253633   -0.083223   -0.001282    0.003433    0.042762
O    -2.045141   -1.363974    0.062563   -0.000328    0.001929    0.023447
O     0.390372    2.485312   -0.189728   -0.000669    0.001756    0.022352
H     2.304174   -1.594508    0.240989   -0.005894    0.017223    0.210159
H    -1.605248    1.003110   -0.550203    0.052288   -0.161482   -1.953140
H     2.580527    0.869382    0.052700   -0.007223    0.020415    0.247129
11
* Frequency(13)  700.9677
C     1.592474    0.403322   -0.029274    0.003481   -0.011220   -0.133389
C     1.402450   -0.964400    0.132686   -0.001405    0.003898    0.048881
N     0.246650   -1.634667    0.118161    0.002137   -0.006541   -0.081529
C    -0.904796   -0.896408    0.062075   -0.001057    0.003926    0.042850
N    -0.755064    0.508795   -0.023537   -0.003593    0.011214    0.135918
C     0.431600    1.253901   -0.079886   -0.001282    0.003433    0.042762
O    -2.045167   -1.363824    0.064393   -0.000328    0.001929    0.023447
O     0.390320    2.485449   -0.187984   -0.000669    0.001756    0.022352
H     2.303714   -1.593164    0.257388   -0.005894    0.017223    0.210159
H    -1.601168    0.990509   -0.702614    0.052288   -0.161482   -1.953140
H     2.579963    0.870975    0.071985   -0.007223    0.020415    0.247129
11
* Frequency(13)  700.9677
C     1.592635    0.402802   -0.035447    0.003481   -0.011220   -0.133389
C     1.402385   -0.964219    0.134948   -0.001405    0.003898    0.048881
N     0.246749   -1.634970    0.114388    0.002137   -0.006541   -0.081529
C    -0.904845   -0.896226    0.064058   -0.001057    0.003926    0.042850
N    -0.755230    0.509314   -0.017246   -0.003593    0.011214    0.135918
C     0.431540    1.254060   -0.077907   -0.001282    0.003433    0.042762
O    -2.045182   -1.363735    0.065478   -0.000328    0.001929    0.023447
O     0.390289    2.485531   -0.186949   -0.000669    0.001756    0.022352
H     2.303441   -1.592367    0.267115   -0.005894    0.017223    0.210159
H    -1.598748    0.983036   -0.793009    0.052288   -0.161482   -1.953140
H     2.579629    0.871920    0.083422   -0.007223    0.020415    0.247129
11
* Frequency(13)  700.9677
C     1.592669    0.402696   -0.036716    0.003481   -0.011220   -0.133389
C     1.402372   -0.964182    0.135413   -0.001405    0.003898    0.048881
N     0.246769   -1.635032    0.113612    0.002137   -0.006541   -0.081529
C    -0.904855   -0.896189    0.064466   -0.001057    0.003926    0.042850
N    -0.755265    0.509420   -0.015953   -0.003593    0.011214    0.135918
C     0.431528    1.254093   -0.077500   -0.001282    0.003433    0.042762
O    -2.045185   -1.363716    0.065701   -0.000328    0.001929    0.023447
O     0.390283    2.485547   -0.186736   -0.000669    0.001756    0.022352
H     2.303385   -1.592203    0.269115   -0.005894    0.017223    0.210159
H    -1.598251    0.981499   -0.811592    0.052288   -0.161482   -1.953140
H     2.579560    0.872114    0.085774   -0.007223    0.020415    0.247129
11
* Frequency(13)  700.9677
C     1.592570    0.403013   -0.032944    0.003481   -0.011220   -0.133389
C     1.402412   -0.964293    0.134031   -0.001405    0.003898    0.048881
N     0.246709   -1.634847    0.115918    0.002137   -0.006541   -0.081529
C    -0.904825   -0.896300    0.063254   -0.001057    0.003926    0.042850
N    -0.755163    0.509103   -0.019797   -0.003593    0.011214    0.135918
C     0.431564    1.253995   -0.078710   -0.001282    0.003433    0.042762
O    -2.045176   -1.363771    0.065038   -0.000328    0.001929    0.023447
O     0.390302    2.485498   -0.187369   -0.000669    0.001756    0.022352
H     2.303552   -1.592690    0.263170   -0.005894    0.017223    0.210159
H    -1.599730    0.986067   -0.756349    0.052288   -0.161482   -1.953140
H     2.579764    0.871537    0.078784   -0.007223    0.020415    0.247129
11
* Frequency(13)  700.9677
C     1.592351    0.403720   -0.024538    0.003481   -0.011220   -0.133389
C     1.402500   -0.964538    0.130950   -0.001405    0.003898    0.048881
N     0.246574   -1.634435    0.121056    0.002137   -0.006541   -0.081529
C    -0.904759   -0.896547    0.060554   -0.001057    0.003926    0.042850
N    -0.754937    0.508397   -0.028363   -0.003593    0.011214    0.135918
C     0.431645    1.253779   -0.081405   -0.001282    0.003433    0.042762
O    -2.045155   -1.363892    0.063561   -0.000328    0.001929    0.023447
O     0.390344    2.485387   -0.188777   -0.000669    0.001756    0.022352
H     2.303923   -1.593775    0.249927   -0.005894    0.017223    0.210159
H    -1.603025    0.996243   -0.633268    0.052288   -0.161482   -1.953140
H     2.580219    0.870251    0.063210   -0.007223    0.020415    0.247129
11
* Frequency(13)  700.9677
C     1.592034    0.404740   -0.012410    0.003481   -0.011220   -0.133389
C     1.402628   -0.964893    0.126506   -0.001405    0.003898    0.048881
N     0.246380   -1.633840    0.128468    0.002137   -0.006541   -0.081529
C    -0.904663   -0.896904    0.056658   -0.001057    0.003926    0.042850
N    -0.754610    0.507377   -0.040720   -0.003593    0.011214    0.135918
C     0.431762    1.253467   -0.085293   -0.001282    0.003433    0.042762
O    -2.045125   -1.364068    0.061429   -0.000328    0.001929    0.023447
O     0.390405    2.485227   -0.190810   -0.000669    0.001756    0.022352
H     2.304459   -1.595341    0.230819   -0.005894    0.017223    0.210159
H    -1.607779    1.010925   -0.455685    0.052288   -0.161482   -1.953140
H     2.580876    0.868394    0.040741   -0.007223    0.020415    0.247129
11
* Frequency(13)  700.9677
C     1.591655    0.405963    0.002126    0.003481   -0.011220   -0.133389
C     1.402781   -0.965317    0.121179   -0.001405    0.003898    0.048881
N     0.246147   -1.633127    0.137353    0.002137   -0.006541   -0.081529
C    -0.904547   -0.897332    0.051988   -0.001057    0.003926    0.042850
N    -0.754218    0.506155   -0.055532   -0.003593    0.011214    0.135918
C     0.431901    1.253093   -0.089953   -0.001282    0.003433    0.042762
O    -2.045090   -1.364278    0.058874   -0.000328    0.001929    0.023447
O     0.390478    2.485036   -0.193245   -0.000669    0.001756    0.022352
H     2.305101   -1.597218    0.207917   -0.005894    0.017223    0.210159
H    -1.613477    1.028522   -0.242844    0.052288   -0.161482   -1.953140
H     2.581663    0.866170    0.013811   -0.007223    0.020415    0.247129
11
* Frequency(13)  700.9677
C     1.591254    0.407256    0.017495    0.003481   -0.011220   -0.133389
C     1.402943   -0.965766    0.115547   -0.001405    0.003898    0.048881
N     0.245901   -1.632374    0.146746    0.002137   -0.006541   -0.081529
C    -0.904426   -0.897784    0.047051   -0.001057    0.003926    0.042850
N    -0.753804    0.504863   -0.071192   -0.003593    0.011214    0.135918
C     0.432049    1.252697   -0.094879   -0.001282    0.003433    0.042762
O    -2.045052   -1.364500    0.056172   -0.000328    0.001929    0.023447
O     0.390555    2.484834   -0.195821   -0.000669    0.001756    0.022352
H     2.305781   -1.599202    0.183703   -0.005894    0.017223    0.210159
H    -1.619501    1.047127   -0.017811    0.052288   -0.161482   -1.953140
H     2.582495    0.863818   -0.014663   -0.007223    0.020415    0.247129
11
* Frequency(13)  700.9677
C     1.590874    0.408478    0.032031    0.003481   -0.011220   -0.133389
C     1.403096   -0.966191    0.110221   -0.001405    0.003898    0.048881
N     0.245668   -1.631661    0.155631    0.002137   -0.006541   -0.081529
C    -0.904310   -0.898212    0.042382   -0.001057    0.003926    0.042850
N    -0.753413    0.503641   -0.086003   -0.003593    0.011214    0.135918
C     0.432189    1.252323   -0.099539   -0.001282    0.003433    0.042762
O    -2.045016   -1.364710    0.053617   -0.000328    0.001929    0.023447
O     0.390628    2.484642   -0.198257   -0.000669    0.001756    0.022352
H     2.306423   -1.601079    0.160801   -0.005894    0.017223    0.210159
H    -1.625199    1.064725    0.195029    0.052288   -0.161482   -1.953140
H     2.583283    0.861593   -0.041593   -0.007223    0.020415    0.247129
11
* Frequency(13)  700.9677
C     1.590558    0.409498    0.044159    0.003481   -0.011220   -0.133389
C     1.403224   -0.966545    0.105776   -0.001405    0.003898    0.048881
N     0.245473   -1.631066    0.163044    0.002137   -0.006541   -0.081529
C    -0.904214   -0.898569    0.038486   -0.001057    0.003926    0.042850
N    -0.753086    0.502622   -0.098361   -0.003593    0.011214    0.135918
C     0.432305    1.252011   -0.103427   -0.001282    0.003433    0.042762
O    -2.044986   -1.364886    0.051485   -0.000328    0.001929    0.023447
O     0.390688    2.484483   -0.200289   -0.000669    0.001756    0.022352
H     2.306959   -1.602645    0.141693   -0.005894    0.017223    0.210159
H    -1.629953    1.079407    0.372612    0.052288   -0.161482   -1.953140
H     2.583939    0.859737   -0.064062   -0.007223    0.020415    0.247129
11
* Frequency(13)  700.9677
C     1.590339    0.410205    0.052565    0.003481   -0.011220   -0.133389
C     1.403312   -0.966791    0.102696   -0.001405    0.003898    0.048881
N     0.245339   -1.630654    0.168181    0.002137   -0.006541   -0.081529
C    -0.904148   -0.898817    0.035785   -0.001057    0.003926    0.042850
N    -0.752859    0.501915   -0.106926   -0.003593    0.011214    0.135918
C     0.432386    1.251795   -0.106122   -0.001282    0.003433    0.042762
O    -2.044966   -1.365007    0.050008   -0.000328    0.001929    0.023447
O     0.390730    2.484372   -0.201698   -0.000669    0.001756    0.022352
H     2.307330   -1.603730    0.128450   -0.005894    0.017223    0.210159
H    -1.633248    1.089583    0.495694    0.052288   -0.161482   -1.953140
H     2.584394    0.858450   -0.079636   -0.007223    0.020415    0.247129
11
* Frequency(13)  700.9677
C     1.590240    0.410523    0.056337    0.003481   -0.011220   -0.133389
C     1.403352   -0.966901    0.101313   -0.001405    0.003898    0.048881
N     0.245278   -1.630469    0.170487    0.002137   -0.006541   -0.081529
C    -0.904118   -0.898928    0.034573   -0.001057    0.003926    0.042850
N    -0.752758    0.501598   -0.110770   -0.003593    0.011214    0.135918
C     0.432422    1.251698   -0.107332   -0.001282    0.003433    0.042762
O    -2.044956   -1.365062    0.049345   -0.000328    0.001929    0.023447
O     0.390749    2.484322   -0.202330   -0.000669    0.001756    0.022352
H     2.307497   -1.604217    0.122505   -0.005894    0.017223    0.210159
H    -1.634727    1.094150    0.550936    0.052288   -0.161482   -1.953140
H     2.584599    0.857873   -0.086626   -0.007223    0.020415    0.247129
11
* Frequency(13)  700.9677
C     1.590273    0.410416    0.055068    0.003481   -0.011220   -0.133389
C     1.403339   -0.966864    0.101778   -0.001405    0.003898    0.048881
N     0.245299   -1.630531    0.169712    0.002137   -0.006541   -0.081529
C    -0.904128   -0.898890    0.034981   -0.001057    0.003926    0.042850
N    -0.752792    0.501705   -0.109477   -0.003593    0.011214    0.135918
C     0.432410    1.251731   -0.106925   -0.001282    0.003433    0.042762
O    -2.044960   -1.365043    0.049568   -0.000328    0.001929    0.023447
O     0.390743    2.484339   -0.202117   -0.000669    0.001756    0.022352
H     2.307441   -1.604054    0.124505   -0.005894    0.017223    0.210159
H    -1.634230    1.092614    0.532353    0.052288   -0.161482   -1.953140
H     2.584530    0.858067   -0.084274   -0.007223    0.020415    0.247129
11
* Frequency(13)  700.9677
C     1.590434    0.409897    0.048895    0.003481   -0.011220   -0.133389
C     1.403274   -0.966684    0.104041   -0.001405    0.003898    0.048881
N     0.245398   -1.630834    0.165938    0.002137   -0.006541   -0.081529
C    -0.904177   -0.898709    0.036964   -0.001057    0.003926    0.042850
N    -0.752958    0.502224   -0.103187   -0.003593    0.011214    0.135918
C     0.432351    1.251889   -0.104946   -0.001282    0.003433    0.042762
O    -2.044975   -1.364954    0.050653   -0.000328    0.001929    0.023447
O     0.390712    2.484420   -0.201083   -0.000669    0.001756    0.022352
H     2.307168   -1.603256    0.134232   -0.005894    0.017223    0.210159
H    -1.631810    1.085140    0.441958    0.052288   -0.161482   -1.953140
H     2.584196    0.859012   -0.072837   -0.007223    0.020415    0.247129
11
* Frequency(13)  700.9677
C     1.590706    0.409021    0.038486    0.003481   -0.011220   -0.133389
C     1.403164   -0.966380    0.107855   -0.001405    0.003898    0.048881
N     0.245564   -1.631344    0.159576    0.002137   -0.006541   -0.081529
C    -0.904259   -0.898402    0.040308   -0.001057    0.003926    0.042850
N    -0.753239    0.503099   -0.092581   -0.003593    0.011214    0.135918
C     0.432251    1.252157   -0.101609   -0.001282    0.003433    0.042762
O    -2.045000   -1.364804    0.052482   -0.000328    0.001929    0.023447
O     0.390660    2.484557   -0.199338   -0.000669    0.001756    0.022352
H     2.306708   -1.601912    0.150631   -0.005894    0.017223    0.210159
H    -1.627729    1.072539    0.289547    0.052288   -0.161482   -1.953140
H     2.583632    0.860605   -0.053552   -0.007223    0.020415    0.247129
11
* Frequency(13)  700.9677
C     1.591059    0.407884    0.024969    0.003481   -0.011220   -0.133389
C     1.403022   -0.965985    0.112808   -0.001405    0.003898    0.048881
N     0.245781   -1.632007    0.151315    0.002137   -0.006541   -0.081529
C    -0.904366   -0.898004    0.044650   -0.001057    0.003926    0.042850
N    -0.753603    0.504235   -0.078808   -0.003593    0.011214    0.135918
C     0.432121    1.252505   -0.097276   -0.001282    0.003433    0.042762
O    -2.045034   -1.364608    0.054858   -0.000328    0.001929    0.023447
O     0.390592    2.484735   -0.197073   -0.000669    0.001756    0.022352
H     2.306111   -1.600167    0.171926   -0.005894    0.017223    0.210159
H    -1.622431    1.056176    0.091636    0.052288   -0.161482   -1.953140
H     2.582900    0.862674   -0.028511   -0.007223    0.020415    0.247129
11
* Frequency(13)  700.9677
C     1.591454    0.406609    0.009810    0.003481   -0.011220   -0.133389
C     1.402862   -0.965542    0.118363   -0.001405    0.003898    0.048881
N     0.246024   -1.632751    0.142050    0.002137   -0.006541   -0.081529
C    -0.904486   -0.897558    0.049520   -0.001057    0.003926    0.042850
N    -0.754011    0.505509   -0.063362   -0.003593    0.011214    0.135918
C     0.431975    1.252895   -0.092416   -0.001282    0.003433    0.042762
O    -2.045071   -1.364389    0.057523   -0.000328    0.001929    0.023447
O     0.390516    2.484935   -0.194533   -0.000669    0.001756    0.022352
H     2.305441   -1.598210    0.195810   -0.005894    0.017223    0.210159
H    -1.616489    1.037825   -0.130328    0.052288   -0.161482   -1.953140
H     2.582079    0.864994   -0.000426   -0.007223    0.020415    0.247129
