11
* (null), Energy   -1000.0000000
C     1.357708    0.575724   -0.019982   -0.501137   -0.062494   -0.009954
C     1.169529   -0.796569    0.088269    0.169778   -0.063424    0.014136
N     0.012816   -1.463992    0.112098    0.094438    0.062863   -0.003034
C    -1.137586   -0.728374    0.019659   -0.113088    0.003625   -0.004349
N    -0.987337    0.674496   -0.092673    0.425377    0.152858   -0.000492
C     0.198487    1.422060   -0.121503    0.026282   -0.070647    0.005411
O    -2.278352   -1.195100    0.027552   -0.148922   -0.112131    0.005480
O     0.157268    2.653978   -0.224886   -0.027642   -0.055562    0.004087
H     2.071990   -1.429182    0.165269    0.413997    0.286598   -0.036197
H    -1.849786    1.206815   -0.161518    0.986940    1.051494   -0.060326
H     2.348454    1.034025   -0.030636   -0.839048    0.624924   -0.068820
11
* Frequency(20)  998.8117
C     1.300756    0.568622   -0.021113   -0.501137   -0.062494   -0.009954
C     1.188823   -0.803777    0.089876    0.169778   -0.063424    0.014136
N     0.023548   -1.456848    0.111753    0.094438    0.062863   -0.003034
C    -1.150438   -0.727962    0.019165   -0.113088    0.003625   -0.004349
N    -0.938995    0.691868   -0.092729    0.425377    0.152858   -0.000492
C     0.201473    1.414032   -0.120888    0.026282   -0.070647    0.005411
O    -2.295277   -1.207843    0.028175   -0.148922   -0.112131    0.005480
O     0.154126    2.647664   -0.224421   -0.027642   -0.055562    0.004087
H     2.119039   -1.396612    0.161156    0.413997    0.286598   -0.036197
H    -1.737625    1.326311   -0.168374    0.986940    1.051494   -0.060326
H     2.253101    1.105044   -0.038457   -0.839048    0.624924   -0.068820
11
* Frequency(20)  998.8117
C     1.249976    0.562290   -0.022121   -0.501137   -0.062494   -0.009954
C     1.206027   -0.810204    0.091308    0.169778   -0.063424    0.014136
N     0.033118   -1.450478    0.111446    0.094438    0.062863   -0.003034
C    -1.161897   -0.727595    0.018724   -0.113088    0.003625   -0.004349
N    -0.895892    0.707357   -0.092779    0.425377    0.152858   -0.000492
C     0.204137    1.406873   -0.120340    0.026282   -0.070647    0.005411
O    -2.310367   -1.219206    0.028730   -0.148922   -0.112131    0.005480
O     0.151325    2.642034   -0.224007   -0.027642   -0.055562    0.004087
H     2.160989   -1.367571    0.157488    0.413997    0.286598   -0.036197
H    -1.637619    1.432859   -0.174487    0.986940    1.051494   -0.060326
H     2.168080    1.168367   -0.045431   -0.839048    0.624924   -0.068820
11
* Frequency(20)  998.8117
C     1.210870    0.557413   -0.022898   -0.501137   -0.062494   -0.009954
C     1.219275   -0.815153    0.092411    0.169778   -0.063424    0.014136
N     0.040487   -1.445573    0.111209    0.094438    0.062863   -0.003034
C    -1.170722   -0.727312    0.018385   -0.113088    0.003625   -0.004349
N    -0.862698    0.719285   -0.092817    0.425377    0.152858   -0.000492
C     0.206187    1.401360   -0.119917    0.026282   -0.070647    0.005411
O    -2.321988   -1.227956    0.029158   -0.148922   -0.112131    0.005480
O     0.149168    2.637698   -0.223688   -0.027642   -0.055562    0.004087
H     2.193295   -1.345206    0.154663    0.413997    0.286598   -0.036197
H    -1.560604    1.514911   -0.179194    0.986940    1.051494   -0.060326
H     2.102606    1.217132   -0.050801   -0.839048    0.624924   -0.068820
11
* Frequency(20)  998.8117
C     1.187677    0.554520   -0.023359   -0.501137   -0.062494   -0.009954
C     1.227133   -0.818088    0.093065    0.169778   -0.063424    0.014136
N     0.044858   -1.442664    0.111069    0.094438    0.062863   -0.003034
C    -1.175956   -0.727144    0.018183   -0.113088    0.003625   -0.004349
N    -0.843011    0.726359   -0.092840    0.425377    0.152858   -0.000492
C     0.207404    1.398091   -0.119667    0.026282   -0.070647    0.005411
O    -2.328880   -1.233145    0.029411   -0.148922   -0.112131    0.005480
O     0.147889    2.635126   -0.223499   -0.027642   -0.055562    0.004087
H     2.212456   -1.331942    0.152988    0.413997    0.286598   -0.036197
H    -1.514927    1.563576   -0.181986    0.986940    1.051494   -0.060326
H     2.063773    1.246055   -0.053986   -0.839048    0.624924   -0.068820
11
* Frequency(20)  998.8117
C     1.182909    0.553926   -0.023454   -0.501137   -0.062494   -0.009954
C     1.228748   -0.818692    0.093200    0.169778   -0.063424    0.014136
N     0.045757   -1.442065    0.111040    0.094438    0.062863   -0.003034
C    -1.177032   -0.727110    0.018142   -0.113088    0.003625   -0.004349
N    -0.838964    0.727814   -0.092844    0.425377    0.152858   -0.000492
C     0.207654    1.397418   -0.119615    0.026282   -0.070647    0.005411
O    -2.330297   -1.234212    0.029463   -0.148922   -0.112131    0.005480
O     0.147626    2.634598   -0.223460   -0.027642   -0.055562    0.004087
H     2.216394   -1.329215    0.152644    0.413997    0.286598   -0.036197
H    -1.505537    1.573581   -0.182560    0.986940    1.051494   -0.060326
H     2.055790    1.252001   -0.054641   -0.839048    0.624924   -0.068820
11
* Frequency(20)  998.8117
C     1.197083    0.555693   -0.023172   -0.501137   -0.062494   -0.009954
C     1.223946   -0.816898    0.092800    0.169778   -0.063424    0.014136
N     0.043085   -1.443843    0.111125    0.094438    0.062863   -0.003034
C    -1.173833   -0.727212    0.018265   -0.113088    0.003625   -0.004349
N    -0.850995    0.723490   -0.092831    0.425377    0.152858   -0.000492
C     0.206911    1.399417   -0.119768    0.026282   -0.070647    0.005411
O    -2.326085   -1.231041    0.029308   -0.148922   -0.112131    0.005480
O     0.148408    2.636169   -0.223576   -0.027642   -0.055562    0.004087
H     2.204685   -1.337321    0.153668    0.413997    0.286598   -0.036197
H    -1.533451    1.543840   -0.180854    0.986940    1.051494   -0.060326
H     2.079522    1.234326   -0.052694   -0.839048    0.624924   -0.068820
11
* Frequency(20)  998.8117
C     1.228663    0.559632   -0.022545   -0.501137   -0.062494   -0.009954
C     1.213247   -0.812901    0.091909    0.169778   -0.063424    0.014136
N     0.037134   -1.447805    0.111317    0.094438    0.062863   -0.003034
C    -1.166707   -0.727441    0.018539   -0.113088    0.003625   -0.004349
N    -0.877801    0.713858   -0.092799    0.425377    0.152858   -0.000492
C     0.205254    1.403869   -0.120109    0.026282   -0.070647    0.005411
O    -2.316700   -1.223974    0.028963   -0.148922   -0.112131    0.005480
O     0.150150    2.639671   -0.223833   -0.027642   -0.055562    0.004087
H     2.178596   -1.355382    0.155949    0.413997    0.286598   -0.036197
H    -1.595645    1.477578   -0.177052    0.986940    1.051494   -0.060326
H     2.132396    1.194945   -0.048357   -0.839048    0.624924   -0.068820
11
* Frequency(20)  998.8117
C     1.274228    0.565314   -0.021640   -0.501137   -0.062494   -0.009954
C     1.197811   -0.807135    0.090624    0.169778   -0.063424    0.014136
N     0.028548   -1.453521    0.111593    0.094438    0.062863   -0.003034
C    -1.156424   -0.727770    0.018934   -0.113088    0.003625   -0.004349
N    -0.916477    0.699959   -0.092755    0.425377    0.152858   -0.000492
C     0.202865    1.410292   -0.120601    0.026282   -0.070647    0.005411
O    -2.303160   -1.213779    0.028465   -0.148922   -0.112131    0.005480
O     0.152663    2.644722   -0.224205   -0.027642   -0.055562    0.004087
H     2.140955   -1.381440    0.159240    0.413997    0.286598   -0.036197
H    -1.685380    1.381974   -0.171568    0.986940    1.051494   -0.060326
H     2.208684    1.138125   -0.042100   -0.839048    0.624924   -0.068820
11
* Frequency(20)  998.8117
C     1.328838    0.572124   -0.020555   -0.501137   -0.062494   -0.009954
C     1.179309   -0.800223    0.089083    0.169778   -0.063424    0.014136
N     0.018256   -1.460371    0.111923    0.094438    0.062863   -0.003034
C    -1.144101   -0.728165    0.019408   -0.113088    0.003625   -0.004349
N    -0.962832    0.683302   -0.092701    0.425377    0.152858   -0.000492
C     0.200001    1.417991   -0.121191    0.026282   -0.070647    0.005411
O    -2.286932   -1.201560    0.027868   -0.148922   -0.112131    0.005480
O     0.155675    2.650777   -0.224650   -0.027642   -0.055562    0.004087
H     2.095840   -1.412672    0.163184    0.413997    0.286598   -0.036197
H    -1.792930    1.267389   -0.164994    0.986940    1.051494   -0.060326
H     2.300118    1.070025   -0.034601   -0.839048    0.624924   -0.068820
11
* Frequency(20)  998.8117
C     1.386577    0.579324   -0.019408   -0.501137   -0.062494   -0.009954
C     1.159748   -0.792916    0.087455    0.169778   -0.063424    0.014136
N     0.007376   -1.467614    0.112273    0.094438    0.062863   -0.003034
C    -1.131071   -0.728583    0.019909   -0.113088    0.003625   -0.004349
N    -1.011843    0.665690   -0.092644    0.425377    0.152858   -0.000492
C     0.196972    1.426130   -0.121814    0.026282   -0.070647    0.005411
O    -2.269773   -1.188641    0.027236   -0.148922   -0.112131    0.005480
O     0.158860    2.657179   -0.225121   -0.027642   -0.055562    0.004087
H     2.048141   -1.445692    0.167355    0.413997    0.286598   -0.036197
H    -1.906641    1.146240   -0.158043    0.986940    1.051494   -0.060326
H     2.396790    0.998024   -0.026672   -0.839048    0.624924   -0.068820
11
* Frequency(20)  998.8117
C     1.441188    0.586135   -0.018323   -0.501137   -0.062494   -0.009954
C     1.141247   -0.786004    0.085914    0.169778   -0.063424    0.014136
N    -0.002916   -1.474464    0.112603    0.094438    0.062863   -0.003034
C    -1.118747   -0.728978    0.020383   -0.113088    0.003625   -0.004349
N    -1.058197    0.649033   -0.092591    0.425377    0.152858   -0.000492
C     0.194108    1.433829   -0.122404    0.026282   -0.070647    0.005411
O    -2.253545   -1.176421    0.026639   -0.148922   -0.112131    0.005480
O     0.161872    2.663234   -0.225566   -0.027642   -0.055562    0.004087
H     2.003026   -1.476924    0.171299    0.413997    0.286598   -0.036197
H    -2.014192    1.031655   -0.151469    0.986940    1.051494   -0.060326
H     2.488224    0.929924   -0.019172   -0.839048    0.624924   -0.068820
11
* Frequency(20)  998.8117
C     1.486752    0.591817   -0.017418   -0.501137   -0.062494   -0.009954
C     1.125811   -0.780238    0.084629    0.169778   -0.063424    0.014136
N    -0.011502   -1.480180    0.112879    0.094438    0.062863   -0.003034
C    -1.108465   -0.729308    0.020779   -0.113088    0.003625   -0.004349
N    -1.096873    0.635135   -0.092546    0.425377    0.152858   -0.000492
C     0.191719    1.440252   -0.122896    0.026282   -0.070647    0.005411
O    -2.240004   -1.166226    0.026141   -0.148922   -0.112131    0.005480
O     0.164385    2.668285   -0.225938   -0.027642   -0.055562    0.004087
H     1.965385   -1.502982    0.174590    0.413997    0.286598   -0.036197
H    -2.103926    0.936051   -0.145984    0.986940    1.051494   -0.060326
H     2.564512    0.873105   -0.012915   -0.839048    0.624924   -0.068820
11
* Frequency(20)  998.8117
C     1.518333    0.595755   -0.016791   -0.501137   -0.062494   -0.009954
C     1.115112   -0.776241    0.083738    0.169778   -0.063424    0.014136
N    -0.017453   -1.484141    0.113070    0.094438    0.062863   -0.003034
C    -1.101339   -0.729536    0.021053   -0.113088    0.003625   -0.004349
N    -1.123680    0.625502   -0.092515    0.425377    0.152858   -0.000492
C     0.190063    1.444704   -0.123237    0.026282   -0.070647    0.005411
O    -2.230620   -1.159160    0.025795   -0.148922   -0.112131    0.005480
O     0.166127    2.671787   -0.226195   -0.027642   -0.055562    0.004087
H     1.939296   -1.521042    0.176871    0.413997    0.286598   -0.036197
H    -2.166120    0.869789   -0.142183    0.986940    1.051494   -0.060326
H     2.617386    0.833723   -0.008578   -0.839048    0.624924   -0.068820
11
* Frequency(20)  998.8117
C     1.532507    0.597523   -0.016510   -0.501137   -0.062494   -0.009954
C     1.110310   -0.774447    0.083338    0.169778   -0.063424    0.014136
N    -0.020124   -1.485919    0.113156    0.094438    0.062863   -0.003034
C    -1.098140   -0.729639    0.021176   -0.113088    0.003625   -0.004349
N    -1.135711    0.621179   -0.092501    0.425377    0.152858   -0.000492
C     0.189319    1.446702   -0.123390    0.026282   -0.070647    0.005411
O    -2.226408   -1.155988    0.025640   -0.148922   -0.112131    0.005480
O     0.166909    2.673358   -0.226311   -0.027642   -0.055562    0.004087
H     1.927586   -1.529148    0.177895    0.413997    0.286598   -0.036197
H    -2.194035    0.840049   -0.140477    0.986940    1.051494   -0.060326
H     2.641118    0.816048   -0.006632   -0.839048    0.624924   -0.068820
11
* Frequency(20)  998.8117
C     1.527739    0.596928   -0.016604   -0.501137   -0.062494   -0.009954
C     1.111925   -0.775050    0.083473    0.169778   -0.063424    0.014136
N    -0.019226   -1.485321    0.113127    0.094438    0.062863   -0.003034
C    -1.099216   -0.729604    0.021134   -0.113088    0.003625   -0.004349
N    -1.131664    0.622633   -0.092506    0.425377    0.152858   -0.000492
C     0.189569    1.446030   -0.123339    0.026282   -0.070647    0.005411
O    -2.227825   -1.157055    0.025693   -0.148922   -0.112131    0.005480
O     0.166646    2.672830   -0.226272   -0.027642   -0.055562    0.004087
H     1.931525   -1.526422    0.177551    0.413997    0.286598   -0.036197
H    -2.184644    0.850053   -0.141051    0.986940    1.051494   -0.060326
H     2.633135    0.821994   -0.007286   -0.839048    0.624924   -0.068820
11
* Frequency(20)  998.8117
C     1.504545    0.594036   -0.017065   -0.501137   -0.062494   -0.009954
C     1.119783   -0.777986    0.084127    0.169778   -0.063424    0.014136
N    -0.014855   -1.482412    0.112987    0.094438    0.062863   -0.003034
C    -1.104450   -0.729436    0.020933   -0.113088    0.003625   -0.004349
N    -1.111976    0.629708   -0.092529    0.425377    0.152858   -0.000492
C     0.190786    1.442760   -0.123088    0.026282   -0.070647    0.005411
O    -2.234717   -1.162245    0.025946   -0.148922   -0.112131    0.005480
O     0.165367    2.670258   -0.226083   -0.027642   -0.055562    0.004087
H     1.950686   -1.513157    0.175875    0.413997    0.286598   -0.036197
H    -2.138967    0.898718   -0.143843    0.986940    1.051494   -0.060326
H     2.594302    0.850917   -0.010471   -0.839048    0.624924   -0.068820
11
* Frequency(20)  998.8117
C     1.465439    0.589159   -0.017842   -0.501137   -0.062494   -0.009954
C     1.133031   -0.782935    0.085230    0.169778   -0.063424    0.014136
N    -0.007486   -1.477506    0.112750    0.094438    0.062863   -0.003034
C    -1.113275   -0.729153    0.020594   -0.113088    0.003625   -0.004349
N    -1.078783    0.641636   -0.092567    0.425377    0.152858   -0.000492
C     0.192837    1.437248   -0.122666    0.026282   -0.070647    0.005411
O    -2.246338   -1.170995    0.026374   -0.148922   -0.112131    0.005480
O     0.163210    2.665922   -0.225764   -0.027642   -0.055562    0.004087
H     1.982992   -1.490793    0.173051    0.413997    0.286598   -0.036197
H    -2.061952    0.980770   -0.148550    0.986940    1.051494   -0.060326
H     2.528828    0.899682   -0.015842   -0.839048    0.624924   -0.068820
11
* Frequency(20)  998.8117
C     1.414659    0.582826   -0.018850   -0.501137   -0.062494   -0.009954
C     1.150234   -0.789362    0.086663    0.169778   -0.063424    0.014136
N     0.002084   -1.471136    0.112443    0.094438    0.062863   -0.003034
C    -1.124734   -0.728786    0.020153   -0.113088    0.003625   -0.004349
N    -1.035679    0.657125   -0.092617    0.425377    0.152858   -0.000492
C     0.195500    1.430089   -0.122118    0.026282   -0.070647    0.005411
O    -2.261428   -1.182357    0.026929   -0.148922   -0.112131    0.005480
O     0.160409    2.660292   -0.225350   -0.027642   -0.055562    0.004087
H     2.024942   -1.461752    0.169383    0.413997    0.286598   -0.036197
H    -1.961946    1.087318   -0.154663    0.986940    1.051494   -0.060326
H     2.443807    0.963005   -0.022815   -0.839048    0.624924   -0.068820
11
* Frequency(20)  998.8117
C     1.357708    0.575724   -0.019982   -0.501137   -0.062494   -0.009954
C     1.169529   -0.796569    0.088269    0.169778   -0.063424    0.014136
N     0.012816   -1.463992    0.112098    0.094438    0.062863   -0.003034
C    -1.137586   -0.728374    0.019659   -0.113088    0.003625   -0.004349
N    -0.987337    0.674496   -0.092673    0.425377    0.152858   -0.000492
C     0.198487    1.422060   -0.121503    0.026282   -0.070647    0.005411
O    -2.278352   -1.195100    0.027552   -0.148922   -0.112131    0.005480
O     0.157268    2.653978   -0.224886   -0.027642   -0.055562    0.004087
H     2.071990   -1.429182    0.165269    0.413997    0.286598   -0.036197
H    -1.849786    1.206815   -0.161518    0.986940    1.051494   -0.060326
H     2.348454    1.034025   -0.030636   -0.839048    0.624924   -0.068820
