11
* (null), Energy   -1000.0000000
C     1.591454    0.406609    0.009810    0.318811   -0.100588    0.017579
C     1.402862   -0.965542    0.118363    0.132720   -0.189271    0.017481
N     0.246024   -1.632751    0.142050    0.107411   -0.283476    0.027547
C    -0.904486   -0.897558    0.049520    0.240606    0.051262    0.003391
N    -0.754011    0.505509   -0.063362    0.567940   -0.296756    0.041067
C     0.431975    1.252895   -0.092416    0.166738   -0.139228    0.017245
O    -2.045071   -1.364389    0.057523   -0.161879    1.023343   -0.090275
O     0.390516    2.484935   -0.194533   -1.147124   -0.181299   -0.017134
H     2.305441   -1.598210    0.195810    0.123128   -0.199566    0.013852
H    -1.616489    1.037825   -0.130328    0.601467   -0.262502    0.036674
H     2.582079    0.864994   -0.000426    0.433284   -0.338024    0.037185
11
* Frequency(8)  392.1892
C     1.627686    0.395178    0.011808    0.318811   -0.100588    0.017579
C     1.417945   -0.987051    0.120350    0.132720   -0.189271    0.017481
N     0.258231   -1.664966    0.145180    0.107411   -0.283476    0.027547
C    -0.877143   -0.891733    0.049905    0.240606    0.051262    0.003391
N    -0.689468    0.471784   -0.058695    0.567940   -0.296756    0.041067
C     0.450924    1.237073   -0.090456    0.166738   -0.139228    0.017245
O    -2.063467   -1.248091    0.047264   -0.161879    1.023343   -0.090275
O     0.260151    2.464331   -0.196480   -1.147124   -0.181299   -0.017134
H     2.319434   -1.620890    0.197384    0.123128   -0.199566    0.013852
H    -1.548135    1.007993   -0.126160    0.601467   -0.262502    0.036674
H     2.631320    0.826579    0.003800    0.433284   -0.338024    0.037185
11
* Frequency(8)  392.1892
C     1.659991    0.384985    0.013589    0.318811   -0.100588    0.017579
C     1.431393   -1.006230    0.122121    0.132720   -0.189271    0.017481
N     0.269115   -1.693691    0.147972    0.107411   -0.283476    0.027547
C    -0.852762   -0.886538    0.050249    0.240606    0.051262    0.003391
N    -0.631919    0.441714   -0.054533    0.567940   -0.296756    0.041067
C     0.467820    1.222965   -0.088709    0.166738   -0.139228    0.017245
O    -2.079871   -1.144396    0.038116   -0.161879    1.023343   -0.090275
O     0.143914    2.445960   -0.198217   -1.147124   -0.181299   -0.017134
H     2.331910   -1.641112    0.198788    0.123128   -0.199566    0.013852
H    -1.487189    0.981394   -0.122444    0.601467   -0.262502    0.036674
H     2.675224    0.792327    0.007568    0.433284   -0.338024    0.037185
11
* Frequency(8)  392.1892
C     1.684869    0.377136    0.014961    0.318811   -0.100588    0.017579
C     1.441750   -1.021000    0.123485    0.132720   -0.189271    0.017481
N     0.277496   -1.715812    0.150121    0.107411   -0.283476    0.027547
C    -0.833987   -0.882538    0.050513    0.240606    0.051262    0.003391
N    -0.587600    0.418557   -0.051329    0.567940   -0.296756    0.041067
C     0.480831    1.212100   -0.087363    0.166738   -0.139228    0.017245
O    -2.092503   -1.064541    0.031072   -0.161879    1.023343   -0.090275
O     0.054399    2.431813   -0.199554   -1.147124   -0.181299   -0.017134
H     2.341518   -1.656684    0.199869    0.123128   -0.199566    0.013852
H    -1.440254    0.960910   -0.119582    0.601467   -0.262502    0.036674
H     2.709035    0.765950    0.010469    0.433284   -0.338024    0.037185
11
* Frequency(8)  392.1892
C     1.699624    0.372481    0.015775    0.318811   -0.100588    0.017579
C     1.447892   -1.029760    0.124295    0.132720   -0.189271    0.017481
N     0.282467   -1.728931    0.151396    0.107411   -0.283476    0.027547
C    -0.822851   -0.880166    0.050670    0.240606    0.051262    0.003391
N    -0.561315    0.404823   -0.049428    0.567940   -0.296756    0.041067
C     0.488548    1.205657   -0.086565    0.166738   -0.139228    0.017245
O    -2.099995   -1.017179    0.026893   -0.161879    1.023343   -0.090275
O     0.001308    2.423422   -0.200347   -1.147124   -0.181299   -0.017134
H     2.347217   -1.665921    0.200510    0.123128   -0.199566    0.013852
H    -1.412417    0.948760   -0.117885    0.601467   -0.262502    0.036674
H     2.729088    0.750306    0.012190    0.433284   -0.338024    0.037185
11
* Frequency(8)  392.1892
C     1.702657    0.371524    0.015942    0.318811   -0.100588    0.017579
C     1.449155   -1.031560    0.124461    0.132720   -0.189271    0.017481
N     0.283489   -1.731628    0.151658    0.107411   -0.283476    0.027547
C    -0.820562   -0.879678    0.050702    0.240606    0.051262    0.003391
N    -0.555911    0.401999   -0.049037    0.567940   -0.296756    0.041067
C     0.490134    1.204332   -0.086401    0.166738   -0.139228    0.017245
O    -2.101535   -1.007442    0.026034   -0.161879    1.023343   -0.090275
O    -0.009606    2.421697   -0.200510   -1.147124   -0.181299   -0.017134
H     2.348389   -1.667819    0.200642    0.123128   -0.199566    0.013852
H    -1.406694    0.946263   -0.117536    0.601467   -0.262502    0.036674
H     2.733211    0.747089    0.012544    0.433284   -0.338024    0.037185
11
* Frequency(8)  392.1892
C     1.693640    0.374369    0.015445    0.318811   -0.100588    0.017579
C     1.445401   -1.026207    0.123966    0.132720   -0.189271    0.017481
N     0.280451   -1.723611    0.150879    0.107411   -0.283476    0.027547
C    -0.827367   -0.881128    0.050607    0.240606    0.051262    0.003391
N    -0.571975    0.410393   -0.050199    0.567940   -0.296756    0.041067
C     0.485418    1.208270   -0.086889    0.166738   -0.139228    0.017245
O    -2.096956   -1.036386    0.028588   -0.161879    1.023343   -0.090275
O     0.022839    2.426825   -0.200025   -1.147124   -0.181299   -0.017134
H     2.344906   -1.662175    0.200250    0.123128   -0.199566    0.013852
H    -1.423706    0.953687   -0.118573    0.601467   -0.262502    0.036674
H     2.720956    0.756650    0.011492    0.433284   -0.338024    0.037185
11
* Frequency(8)  392.1892
C     1.673549    0.380707    0.014337    0.318811   -0.100588    0.017579
C     1.437038   -1.014280    0.122865    0.132720   -0.189271    0.017481
N     0.273683   -1.705747    0.149143    0.107411   -0.283476    0.027547
C    -0.842530   -0.884358    0.050393    0.240606    0.051262    0.003391
N    -0.607765    0.429093   -0.052787    0.567940   -0.296756    0.041067
C     0.474911    1.217044   -0.087975    0.166738   -0.139228    0.017245
O    -2.086755   -1.100875    0.034277   -0.161879    1.023343   -0.090275
O     0.095128    2.438250   -0.198945   -1.147124   -0.181299   -0.017134
H     2.337147   -1.649599    0.199377    0.123128   -0.199566    0.013852
H    -1.461609    0.970230   -0.120884    0.601467   -0.262502    0.036674
H     2.693651    0.777951    0.009149    0.433284   -0.338024    0.037185
11
* Frequency(8)  392.1892
C     1.644562    0.389853    0.012739    0.318811   -0.100588    0.017579
C     1.424971   -0.997071    0.121275    0.132720   -0.189271    0.017481
N     0.263917   -1.679973    0.146638    0.107411   -0.283476    0.027547
C    -0.864406   -0.889019    0.050084    0.240606    0.051262    0.003391
N    -0.659403    0.456075   -0.056521    0.567940   -0.296756    0.041067
C     0.459751    1.229702   -0.089543    0.166738   -0.139228    0.017245
O    -2.072037   -1.193919    0.042485   -0.161879    1.023343   -0.090275
O     0.199426    2.454734   -0.197387   -1.147124   -0.181299   -0.017134
H     2.325952   -1.631454    0.198118    0.123128   -0.199566    0.013852
H    -1.516296    0.994097   -0.124219    0.601467   -0.262502    0.036674
H     2.654256    0.808685    0.005768    0.433284   -0.338024    0.037185
11
* Frequency(8)  392.1892
C     1.609820    0.400815    0.010823    0.318811   -0.100588    0.017579
C     1.410508   -0.976445    0.119370    0.132720   -0.189271    0.017481
N     0.252212   -1.649081    0.143637    0.107411   -0.283476    0.027547
C    -0.890626   -0.894605    0.049715    0.240606    0.051262    0.003391
N    -0.721293    0.488414   -0.060996    0.567940   -0.296756    0.041067
C     0.441581    1.244875   -0.091423    0.166738   -0.139228    0.017245
O    -2.054396   -1.305436    0.052322   -0.161879    1.023343   -0.090275
O     0.324432    2.474491   -0.195520   -1.147124   -0.181299   -0.017134
H     2.312534   -1.609707    0.196608    0.123128   -0.199566    0.013852
H    -1.581839    1.022703   -0.128215    0.601467   -0.262502    0.036674
H     2.607040    0.845521    0.001716    0.433284   -0.338024    0.037185
11
* Frequency(8)  392.1892
C     1.573088    0.412404    0.008798    0.318811   -0.100588    0.017579
C     1.395216   -0.954638    0.117356    0.132720   -0.189271    0.017481
N     0.239836   -1.616420    0.140463    0.107411   -0.283476    0.027547
C    -0.918347   -0.900511    0.049324    0.240606    0.051262    0.003391
N    -0.786729    0.522605   -0.065728    0.567940   -0.296756    0.041067
C     0.422370    1.260916   -0.093409    0.166738   -0.139228    0.017245
O    -2.035745   -1.423342    0.062724   -0.161879    1.023343   -0.090275
O     0.456600    2.495379   -0.193546   -1.147124   -0.181299   -0.017134
H     2.298348   -1.586713    0.195012    0.123128   -0.199566    0.013852
H    -1.651138    1.052947   -0.132440    0.601467   -0.262502    0.036674
H     2.557119    0.884466   -0.002568    0.433284   -0.338024    0.037185
11
* Frequency(8)  392.1892
C     1.538346    0.423365    0.006882    0.318811   -0.100588    0.017579
C     1.380753   -0.934013    0.115451    0.132720   -0.189271    0.017481
N     0.228131   -1.585529    0.137461    0.107411   -0.283476    0.027547
C    -0.944567   -0.906098    0.048955    0.240606    0.051262    0.003391
N    -0.848620    0.554943   -0.070203    0.567940   -0.296756    0.041067
C     0.404200    1.276088   -0.095289    0.166738   -0.139228    0.017245
O    -2.018105   -1.534859    0.072561   -0.161879    1.023343   -0.090275
O     0.581606    2.515136   -0.191679   -1.147124   -0.181299   -0.017134
H     2.284930   -1.564966    0.193502    0.123128   -0.199566    0.013852
H    -1.716682    1.081553   -0.136437    0.601467   -0.262502    0.036674
H     2.509902    0.921302   -0.006620    0.433284   -0.338024    0.037185
11
* Frequency(8)  392.1892
C     1.509359    0.432511    0.005284    0.318811   -0.100588    0.017579
C     1.368686   -0.916804    0.113862    0.132720   -0.189271    0.017481
N     0.218365   -1.559754    0.134956    0.107411   -0.283476    0.027547
C    -0.966443   -0.910758    0.048646    0.240606    0.051262    0.003391
N    -0.900258    0.581925   -0.073937    0.567940   -0.296756    0.041067
C     0.389039    1.288747   -0.096857    0.166738   -0.139228    0.017245
O    -2.003386   -1.627903    0.080769   -0.161879    1.023343   -0.090275
O     0.685904    2.531620   -0.190121   -1.147124   -0.181299   -0.017134
H     2.273735   -1.546821    0.192243    0.123128   -0.199566    0.013852
H    -1.771369    1.105420   -0.139771    0.601467   -0.262502    0.036674
H     2.470507    0.952036   -0.010001    0.433284   -0.338024    0.037185
11
* Frequency(8)  392.1892
C     1.489269    0.438850    0.004176    0.318811   -0.100588    0.017579
C     1.360323   -0.904876    0.112760    0.132720   -0.189271    0.017481
N     0.211596   -1.541891    0.133220    0.107411   -0.283476    0.027547
C    -0.981606   -0.913989    0.048433    0.240606    0.051262    0.003391
N    -0.936048    0.600626   -0.076525    0.567940   -0.296756    0.041067
C     0.378532    1.297521   -0.097943    0.166738   -0.139228    0.017245
O    -1.993185   -1.692392    0.086458   -0.161879    1.023343   -0.090275
O     0.758193    2.543045   -0.189041   -1.147124   -0.181299   -0.017134
H     2.265976   -1.534245    0.191370    0.123128   -0.199566    0.013852
H    -1.809272    1.121962   -0.142082    0.601467   -0.262502    0.036674
H     2.443203    0.973337   -0.012344    0.433284   -0.338024    0.037185
11
* Frequency(8)  392.1892
C     1.480251    0.441695    0.003679    0.318811   -0.100588    0.017579
C     1.356569   -0.899523    0.112266    0.132720   -0.189271    0.017481
N     0.208558   -1.533873    0.132441    0.107411   -0.283476    0.027547
C    -0.988411   -0.915439    0.048337    0.240606    0.051262    0.003391
N    -0.952111    0.609019   -0.077686    0.567940   -0.296756    0.041067
C     0.373816    1.301459   -0.098431    0.166738   -0.139228    0.017245
O    -1.988607   -1.721336    0.089011   -0.161879    1.023343   -0.090275
O     0.790638    2.548173   -0.188557   -1.147124   -0.181299   -0.017134
H     2.262493   -1.528601    0.190978    0.123128   -0.199566    0.013852
H    -1.826283    1.129387   -0.143120    0.601467   -0.262502    0.036674
H     2.430948    0.982898   -0.013396    0.433284   -0.338024    0.037185
11
* Frequency(8)  392.1892
C     1.483285    0.440738    0.003846    0.318811   -0.100588    0.017579
C     1.357831   -0.901324    0.112432    0.132720   -0.189271    0.017481
N     0.209580   -1.536570    0.132703    0.107411   -0.283476    0.027547
C    -0.986122   -0.914951    0.048369    0.240606    0.051262    0.003391
N    -0.946708    0.606196   -0.077295    0.567940   -0.296756    0.041067
C     0.375402    1.300134   -0.098267    0.166738   -0.139228    0.017245
O    -1.990147   -1.711599    0.088153   -0.161879    1.023343   -0.090275
O     0.779724    2.546448   -0.188720   -1.147124   -0.181299   -0.017134
H     2.263665   -1.530499    0.191110    0.123128   -0.199566    0.013852
H    -1.820561    1.126889   -0.142771    0.601467   -0.262502    0.036674
H     2.435070    0.979682   -0.013042    0.433284   -0.338024    0.037185
11
* Frequency(8)  392.1892
C     1.498040    0.436082    0.004660    0.318811   -0.100588    0.017579
C     1.363974   -0.910084    0.113241    0.132720   -0.189271    0.017481
N     0.214552   -1.549690    0.133978    0.107411   -0.283476    0.027547
C    -0.974986   -0.912578    0.048526    0.240606    0.051262    0.003391
N    -0.920422    0.592461   -0.075395    0.567940   -0.296756    0.041067
C     0.383119    1.293690   -0.097469    0.166738   -0.139228    0.017245
O    -1.997639   -1.664237    0.083974   -0.161879    1.023343   -0.090275
O     0.726633    2.538057   -0.189513   -1.147124   -0.181299   -0.017134
H     2.269363   -1.539736    0.191751    0.123128   -0.199566    0.013852
H    -1.792724    1.114740   -0.141073    0.601467   -0.262502    0.036674
H     2.455124    0.964037   -0.011321    0.433284   -0.338024    0.037185
11
* Frequency(8)  392.1892
C     1.522918    0.428233    0.006032    0.318811   -0.100588    0.017579
C     1.374331   -0.924853    0.114605    0.132720   -0.189271    0.017481
N     0.222933   -1.571810    0.136128    0.107411   -0.283476    0.027547
C    -0.956211   -0.908578    0.048791    0.240606    0.051262    0.003391
N    -0.876104    0.569304   -0.072190    0.567940   -0.296756    0.041067
C     0.396131    1.282826   -0.096123    0.166738   -0.139228    0.017245
O    -2.010271   -1.584382    0.076930   -0.161879    1.023343   -0.090275
O     0.637118    2.523909   -0.190850   -1.147124   -0.181299   -0.017134
H     2.278972   -1.555309    0.192832    0.123128   -0.199566    0.013852
H    -1.745789    1.094256   -0.138212    0.601467   -0.262502    0.036674
H     2.488934    0.937660   -0.008420    0.433284   -0.338024    0.037185
11
* Frequency(8)  392.1892
C     1.555223    0.418041    0.007813    0.318811   -0.100588    0.017579
C     1.387779   -0.944032    0.116377    0.132720   -0.189271    0.017481
N     0.233817   -1.600535    0.138919    0.107411   -0.283476    0.027547
C    -0.931830   -0.903384    0.049134    0.240606    0.051262    0.003391
N    -0.818555    0.539234   -0.068029    0.567940   -0.296756    0.041067
C     0.413026    1.268718   -0.094376    0.166738   -0.139228    0.017245
O    -2.026674   -1.480687    0.067782   -0.161879    1.023343   -0.090275
O     0.520881    2.505538   -0.192586   -1.147124   -0.181299   -0.017134
H     2.291448   -1.575530    0.194236    0.123128   -0.199566    0.013852
H    -1.684842    1.067657   -0.134496    0.601467   -0.262502    0.036674
H     2.532839    0.903408   -0.004652    0.433284   -0.338024    0.037185
11
* Frequency(8)  392.1892
C     1.591454    0.406609    0.009810    0.318811   -0.100588    0.017579
C     1.402862   -0.965542    0.118363    0.132720   -0.189271    0.017481
N     0.246024   -1.632751    0.142050    0.107411   -0.283476    0.027547
C    -0.904486   -0.897558    0.049520    0.240606    0.051262    0.003391
N    -0.754011    0.505509   -0.063362    0.567940   -0.296756    0.041067
C     0.431975    1.252895   -0.092416    0.166738   -0.139228    0.017245
O    -2.045071   -1.364389    0.057523   -0.161879    1.023343   -0.090275
O     0.390516    2.484935   -0.194533   -1.147124   -0.181299   -0.017134
H     2.305441   -1.598210    0.195810    0.123128   -0.199566    0.013852
H    -1.616489    1.037825   -0.130328    0.601467   -0.262502    0.036674
H     2.582079    0.864994   -0.000426    0.433284   -0.338024    0.037185
