11
* (null), Energy   -1000.0000000
C     1.591454    0.406609    0.009810    0.165244    0.531767   -0.039566
C     1.402862   -0.965542    0.118363    0.008917    0.604614   -0.049883
N     0.246024   -1.632751    0.142050    0.162893   -0.127250    0.014400
C    -0.904486   -0.897558    0.049520   -0.249405   -0.645019    0.046635
N    -0.754011    0.505509   -0.063362    0.227405   -0.553018    0.052154
C     0.431975    1.252895   -0.092416    0.040192    0.011591    0.000633
O    -2.045071   -1.364389    0.057523   -0.715463    0.163012   -0.032737
O     0.390516    2.484935   -0.194533    0.377067    0.004604    0.009890
H     2.305441   -1.598210    0.195810    0.160344    0.831840   -0.064417
H    -1.616489    1.037825   -0.130328    0.117401   -0.724312    0.058791
H     2.582079    0.864994   -0.000426    0.087442    0.691940   -0.053941
11
* Frequency(12)  611.8830
C     1.610234    0.467042    0.005314    0.165244    0.531767   -0.039566
C     1.403875   -0.896831    0.112694    0.008917    0.604614   -0.049883
N     0.264536   -1.647212    0.143686    0.162893   -0.127250    0.014400
C    -0.932830   -0.970861    0.054819   -0.249405   -0.645019    0.046635
N    -0.728168    0.442662   -0.057435    0.227405   -0.553018    0.052154
C     0.436543    1.254212   -0.092344    0.040192    0.011591    0.000633
O    -2.126379   -1.345864    0.053803   -0.715463    0.163012   -0.032737
O     0.433368    2.485458   -0.193409    0.377067    0.004604    0.009890
H     2.323663   -1.503676    0.188489    0.160344    0.831840   -0.064417
H    -1.603147    0.955510   -0.123646    0.117401   -0.724312    0.058791
H     2.592017    0.943629   -0.006556    0.087442    0.691940   -0.053941
11
* Frequency(12)  611.8830
C     1.626978    0.520926    0.001305    0.165244    0.531767   -0.039566
C     1.404779   -0.835565    0.107640    0.008917    0.604614   -0.049883
N     0.281042   -1.660106    0.145145    0.162893   -0.127250    0.014400
C    -0.958102   -1.036221    0.059545   -0.249405   -0.645019    0.046635
N    -0.705125    0.386624   -0.052150    0.227405   -0.553018    0.052154
C     0.440615    1.255387   -0.092280    0.040192    0.011591    0.000633
O    -2.198877   -1.329346    0.050485   -0.715463    0.163012   -0.032737
O     0.471576    2.485924   -0.192407    0.377067    0.004604    0.009890
H     2.339911   -1.419386    0.181962    0.160344    0.831840   -0.064417
H    -1.591251    0.882116   -0.117689    0.117401   -0.724312    0.058791
H     2.600877    1.013743   -0.012022    0.087442    0.691940   -0.053941
11
* Frequency(12)  611.8830
C     1.639872    0.562421   -0.001783    0.165244    0.531767   -0.039566
C     1.405475   -0.788385    0.103747    0.008917    0.604614   -0.049883
N     0.293753   -1.670036    0.146269    0.162893   -0.127250    0.014400
C    -0.977564   -1.086554    0.063184   -0.249405   -0.645019    0.046635
N    -0.687380    0.343470   -0.048080    0.227405   -0.553018    0.052154
C     0.443752    1.256291   -0.092231    0.040192    0.011591    0.000633
O    -2.254707   -1.316625    0.047931   -0.715463    0.163012   -0.032737
O     0.501000    2.486284   -0.191635    0.377067    0.004604    0.009890
H     2.352423   -1.354474    0.176935    0.160344    0.831840   -0.064417
H    -1.582089    0.825595   -0.113102    0.117401   -0.724312    0.058791
H     2.607701    1.067738   -0.016231    0.087442    0.691940   -0.053941
11
* Frequency(12)  611.8830
C     1.647520    0.587033   -0.003614    0.165244    0.531767   -0.039566
C     1.405887   -0.760402    0.101438    0.008917    0.604614   -0.049883
N     0.301292   -1.675925    0.146935    0.162893   -0.127250    0.014400
C    -0.989107   -1.116407    0.065342   -0.249405   -0.645019    0.046635
N    -0.676855    0.317876   -0.045667    0.227405   -0.553018    0.052154
C     0.445612    1.256828   -0.092201    0.040192    0.011591    0.000633
O    -2.287820   -1.309081    0.046416   -0.715463    0.163012   -0.032737
O     0.518451    2.486497   -0.191177    0.377067    0.004604    0.009890
H     2.359844   -1.315975    0.173954    0.160344    0.831840   -0.064417
H    -1.576656    0.792073   -0.110381    0.117401   -0.724312    0.058791
H     2.611748    1.099762   -0.018728    0.087442    0.691940   -0.053941
11
* Frequency(12)  611.8830
C     1.649092    0.592092   -0.003990    0.165244    0.531767   -0.039566
C     1.405972   -0.754650    0.100964    0.008917    0.604614   -0.049883
N     0.302842   -1.677136    0.147072    0.162893   -0.127250    0.014400
C    -0.991480   -1.122544    0.065786   -0.249405   -0.645019    0.046635
N    -0.674691    0.312614   -0.045170    0.227405   -0.553018    0.052154
C     0.445994    1.256938   -0.092195    0.040192    0.011591    0.000633
O    -2.294628   -1.307530    0.046104   -0.715463    0.163012   -0.032737
O     0.522039    2.486541   -0.191083    0.377067    0.004604    0.009890
H     2.361370   -1.308060    0.173341    0.160344    0.831840   -0.064417
H    -1.575539    0.785181   -0.109821    0.117401   -0.724312    0.058791
H     2.612580    1.106346   -0.019241    0.087442    0.691940   -0.053941
11
* Frequency(12)  611.8830
C     1.644419    0.577052   -0.002871    0.165244    0.531767   -0.039566
C     1.405720   -0.771751    0.102375    0.008917    0.604614   -0.049883
N     0.298234   -1.673537    0.146665    0.162893   -0.127250    0.014400
C    -0.984426   -1.104300    0.064467   -0.249405   -0.645019    0.046635
N    -0.681123    0.328255   -0.046645    0.227405   -0.553018    0.052154
C     0.444857    1.256610   -0.092213    0.040192    0.011591    0.000633
O    -2.274392   -1.312140    0.047030   -0.715463    0.163012   -0.032737
O     0.511374    2.486410   -0.191363    0.377067    0.004604    0.009890
H     2.356834   -1.331588    0.175163    0.160344    0.831840   -0.064417
H    -1.578859    0.805668   -0.111484    0.117401   -0.724312    0.058791
H     2.610106    1.086775   -0.017715    0.087442    0.691940   -0.053941
11
* Frequency(12)  611.8830
C     1.634005    0.543541   -0.000378    0.165244    0.531767   -0.039566
C     1.405158   -0.809852    0.105518    0.008917    0.604614   -0.049883
N     0.287969   -1.665518    0.145758    0.162893   -0.127250    0.014400
C    -0.968709   -1.063653    0.061528   -0.249405   -0.645019    0.046635
N    -0.695454    0.363105   -0.049932    0.227405   -0.553018    0.052154
C     0.442325    1.255880   -0.092253    0.040192    0.011591    0.000633
O    -2.229305   -1.322413    0.049093   -0.715463    0.163012   -0.032737
O     0.487612    2.486120   -0.191986    0.377067    0.004604    0.009890
H     2.346730   -1.384008    0.179222    0.160344    0.831840   -0.064417
H    -1.586258    0.851312   -0.115189    0.117401   -0.724312    0.058791
H     2.604596    1.043171   -0.014316    0.087442    0.691940   -0.053941
11
* Frequency(12)  611.8830
C     1.618981    0.495192    0.003219    0.165244    0.531767   -0.039566
C     1.404347   -0.864824    0.110054    0.008917    0.604614   -0.049883
N     0.273159   -1.653948    0.144448    0.162893   -0.127250    0.014400
C    -0.946033   -1.005007    0.057288   -0.249405   -0.645019    0.046635
N    -0.716130    0.413387   -0.054674    0.227405   -0.553018    0.052154
C     0.438670    1.254826   -0.092311    0.040192    0.011591    0.000633
O    -2.164254   -1.337234    0.052070   -0.715463    0.163012   -0.032737
O     0.453329    2.485702   -0.192886    0.377067    0.004604    0.009890
H     2.332151   -1.459641    0.185079    0.160344    0.831840   -0.064417
H    -1.596932    0.917168   -0.120534    0.117401   -0.724312    0.058791
H     2.596646    0.980258   -0.009412    0.087442    0.691940   -0.053941
11
* Frequency(12)  611.8830
C     1.600974    0.437243    0.007531    0.165244    0.531767   -0.039566
C     1.403376   -0.930711    0.115490    0.008917    0.604614   -0.049883
N     0.255408   -1.640081    0.142879    0.162893   -0.127250    0.014400
C    -0.918854   -0.934717    0.052206   -0.249405   -0.645019    0.046635
N    -0.740911    0.473651   -0.060357    0.227405   -0.553018    0.052154
C     0.434291    1.253563   -0.092380    0.040192    0.011591    0.000633
O    -2.086287   -1.354998    0.055637   -0.715463    0.163012   -0.032737
O     0.412238    2.485200   -0.193963    0.377067    0.004604    0.009890
H     2.314678   -1.550289    0.192099    0.160344    0.831840   -0.064417
H    -1.609726    0.996099   -0.126941    0.117401   -0.724312    0.058791
H     2.587117    0.904855   -0.003533    0.087442    0.691940   -0.053941
11
* Frequency(12)  611.8830
C     1.581935    0.375975    0.012090    0.165244    0.531767   -0.039566
C     1.402348   -1.000372    0.121237    0.008917    0.604614   -0.049883
N     0.236640   -1.625420    0.141220    0.162893   -0.127250    0.014400
C    -0.890119   -0.860400    0.046833   -0.249405   -0.645019    0.046635
N    -0.767112    0.537367   -0.066366    0.227405   -0.553018    0.052154
C     0.429660    1.252227   -0.092452    0.040192    0.011591    0.000633
O    -2.003854   -1.373780    0.059409   -0.715463    0.163012   -0.032737
O     0.368794    2.484670   -0.195103    0.377067    0.004604    0.009890
H     2.296204   -1.646131    0.199521    0.160344    0.831840   -0.064417
H    -1.623252    1.079551   -0.133715    0.117401   -0.724312    0.058791
H     2.577042    0.825132    0.002682    0.087442    0.691940   -0.053941
11
* Frequency(12)  611.8830
C     1.563928    0.318027    0.016401    0.165244    0.531767   -0.039566
C     1.401377   -1.066259    0.126673    0.008917    0.604614   -0.049883
N     0.218889   -1.611553    0.139651    0.162893   -0.127250    0.014400
C    -0.862940   -0.790110    0.041751   -0.249405   -0.645019    0.046635
N    -0.791893    0.597632   -0.072050    0.227405   -0.553018    0.052154
C     0.425280    1.250964   -0.092521    0.040192    0.011591    0.000633
O    -1.925888   -1.391544    0.062976   -0.715463    0.163012   -0.032737
O     0.327704    2.484168   -0.196181    0.377067    0.004604    0.009890
H     2.278731   -1.736779    0.206541    0.160344    0.831840   -0.064417
H    -1.636046    1.158482   -0.140121    0.117401   -0.724312    0.058791
H     2.567513    0.749729    0.008560    0.087442    0.691940   -0.053941
11
* Frequency(12)  611.8830
C     1.548903    0.269677    0.019999    0.165244    0.531767   -0.039566
C     1.400566   -1.121232    0.131208    0.008917    0.604614   -0.049883
N     0.204078   -1.599983    0.138342    0.162893   -0.127250    0.014400
C    -0.840264   -0.731464    0.037511   -0.249405   -0.645019    0.046635
N    -0.812569    0.647913   -0.076792    0.227405   -0.553018    0.052154
C     0.421626    1.249911   -0.092579    0.040192    0.011591    0.000633
O    -1.860837   -1.406365    0.065953   -0.715463    0.163012   -0.032737
O     0.293420    2.483749   -0.197080    0.377067    0.004604    0.009890
H     2.264152   -1.812412    0.212398    0.160344    0.831840   -0.064417
H    -1.646720    1.224338   -0.145467    0.117401   -0.724312    0.058791
H     2.559563    0.686817    0.013464    0.087442    0.691940   -0.053941
11
* Frequency(12)  611.8830
C     1.538490    0.236167    0.022492    0.165244    0.531767   -0.039566
C     1.400004   -1.159333    0.134352    0.008917    0.604614   -0.049883
N     0.193813   -1.591964    0.137434    0.162893   -0.127250    0.014400
C    -0.824547   -0.690816    0.034572   -0.249405   -0.645019    0.046635
N    -0.826899    0.682763   -0.080078    0.227405   -0.553018    0.052154
C     0.419093    1.249180   -0.092619    0.040192    0.011591    0.000633
O    -1.815750   -1.416638    0.068016   -0.715463    0.163012   -0.032737
O     0.269658    2.483459   -0.197703    0.377067    0.004604    0.009890
H     2.254047   -1.864832    0.216457    0.160344    0.831840   -0.064417
H    -1.654118    1.269982   -0.149171    0.117401   -0.724312    0.058791
H     2.554052    0.643212    0.016863    0.087442    0.691940   -0.053941
11
* Frequency(12)  611.8830
C     1.533816    0.221126    0.023611    0.165244    0.531767   -0.039566
C     1.399752   -1.176434    0.135763    0.008917    0.604614   -0.049883
N     0.189206   -1.588365    0.137027    0.162893   -0.127250    0.014400
C    -0.817493   -0.672573    0.033253   -0.249405   -0.645019    0.046635
N    -0.833331    0.698404   -0.081553    0.227405   -0.553018    0.052154
C     0.417956    1.248852   -0.092637    0.040192    0.011591    0.000633
O    -1.795514   -1.421248    0.068942   -0.715463    0.163012   -0.032737
O     0.258993    2.483329   -0.197983    0.377067    0.004604    0.009890
H     2.249512   -1.888360    0.218279    0.160344    0.831840   -0.064417
H    -1.657439    1.290468   -0.150834    0.117401   -0.724312    0.058791
H     2.551579    0.623642    0.018389    0.087442    0.691940   -0.053941
11
* Frequency(12)  611.8830
C     1.535389    0.226186    0.023235    0.165244    0.531767   -0.039566
C     1.399837   -1.170681    0.135288    0.008917    0.604614   -0.049883
N     0.190756   -1.589576    0.137164    0.162893   -0.127250    0.014400
C    -0.819866   -0.678710    0.033697   -0.249405   -0.645019    0.046635
N    -0.831168    0.693143   -0.081057    0.227405   -0.553018    0.052154
C     0.418338    1.248963   -0.092631    0.040192    0.011591    0.000633
O    -1.802321   -1.419697    0.068630   -0.715463    0.163012   -0.032737
O     0.262581    2.483373   -0.197889    0.377067    0.004604    0.009890
H     2.251038   -1.880445    0.217666    0.160344    0.831840   -0.064417
H    -1.656322    1.283577   -0.150275    0.117401   -0.724312    0.058791
H     2.552411    0.630225    0.017876    0.087442    0.691940   -0.053941
11
* Frequency(12)  611.8830
C     1.543036    0.250797    0.021404    0.165244    0.531767   -0.039566
C     1.400249   -1.142699    0.132980    0.008917    0.604614   -0.049883
N     0.198295   -1.595465    0.137830    0.162893   -0.127250    0.014400
C    -0.831409   -0.708562    0.035855   -0.249405   -0.645019    0.046635
N    -0.820643    0.667548   -0.078643    0.227405   -0.553018    0.052154
C     0.420199    1.249499   -0.092601    0.040192    0.011591    0.000633
O    -1.835434   -1.412153    0.067115   -0.715463    0.163012   -0.032737
O     0.280032    2.483586   -0.197431    0.377067    0.004604    0.009890
H     2.258459   -1.841946    0.214685    0.160344    0.831840   -0.064417
H    -1.650888    1.250054   -0.147554    0.117401   -0.724312    0.058791
H     2.556458    0.662249    0.015379    0.087442    0.691940   -0.053941
11
* Frequency(12)  611.8830
C     1.555931    0.292293    0.018316    0.165244    0.531767   -0.039566
C     1.400945   -1.095518    0.129087    0.008917    0.604614   -0.049883
N     0.211006   -1.605395    0.138954    0.162893   -0.127250    0.014400
C    -0.850871   -0.758896    0.039494   -0.249405   -0.645019    0.046635
N    -0.802897    0.624394   -0.074573    0.227405   -0.553018    0.052154
C     0.423335    1.250404   -0.092552    0.040192    0.011591    0.000633
O    -1.891264   -1.399432    0.064561   -0.715463    0.163012   -0.032737
O     0.309456    2.483945   -0.196659    0.377067    0.004604    0.009890
H     2.270971   -1.777034    0.209658    0.160344    0.831840   -0.064417
H    -1.641727    1.193533   -0.142966    0.117401   -0.724312    0.058791
H     2.563281    0.716244    0.011170    0.087442    0.691940   -0.053941
11
* Frequency(12)  611.8830
C     1.572675    0.346177    0.014307    0.165244    0.531767   -0.039566
C     1.401849   -1.034253    0.124032    0.008917    0.604614   -0.049883
N     0.227512   -1.618289    0.140413    0.162893   -0.127250    0.014400
C    -0.876143   -0.824255    0.044220   -0.249405   -0.645019    0.046635
N    -0.779855    0.568357   -0.069289    0.227405   -0.553018    0.052154
C     0.427408    1.251578   -0.092488    0.040192    0.011591    0.000633
O    -1.963762   -1.382914    0.061243   -0.715463    0.163012   -0.032737
O     0.347664    2.484412   -0.195657    0.377067    0.004604    0.009890
H     2.287219   -1.692744    0.203131    0.160344    0.831840   -0.064417
H    -1.629831    1.120139   -0.137009    0.117401   -0.724312    0.058791
H     2.572142    0.786358    0.005704    0.087442    0.691940   -0.053941
11
* Frequency(12)  611.8830
C     1.591454    0.406609    0.009810    0.165244    0.531767   -0.039566
C     1.402862   -0.965542    0.118363    0.008917    0.604614   -0.049883
N     0.246024   -1.632751    0.142050    0.162893   -0.127250    0.014400
C    -0.904486   -0.897558    0.049520   -0.249405   -0.645019    0.046635
N    -0.754011    0.505509   -0.063362    0.227405   -0.553018    0.052154
C     0.431975    1.252895   -0.092416    0.040192    0.011591    0.000633
O    -2.045071   -1.364389    0.057523   -0.715463    0.163012   -0.032737
O     0.390516    2.484935   -0.194533    0.377067    0.004604    0.009890
H     2.305441   -1.598210    0.195810    0.160344    0.831840   -0.064417
H    -1.616489    1.037825   -0.130328    0.117401   -0.724312    0.058791
H     2.582079    0.864994   -0.000426    0.087442    0.691940   -0.053941
