11
* (null), Energy   -1000.0000000
C     1.357708    0.575724   -0.019982    0.431076   -0.730701    0.072072
C     1.169529   -0.796569    0.088269   -0.494577    0.308408   -0.039060
N     0.012816   -1.463992    0.112098    0.604203   -0.087822    0.023813
C    -1.137586   -0.728374    0.019659   -0.112169    0.481388   -0.043051
N    -0.987337    0.674496   -0.092673    0.225596   -0.051319    0.010602
C     0.198487    1.422060   -0.121503   -0.556692   -0.241601    0.004835
O    -2.278352   -1.195100    0.027552   -0.160312   -0.116643    0.005320
O     0.157268    2.653978   -0.224886    0.037171    0.305781   -0.024341
H     2.071990   -1.429182    0.165269   -0.595309    0.200278   -0.032124
H    -1.849786    1.206815   -0.161518    0.166703   -0.153907    0.016753
H     2.348454    1.034025   -0.030636   -0.421054    1.059799   -0.098955
11
* Frequency(26) 1490.0188
C     1.406697    0.492684   -0.011791    0.431076   -0.730701    0.072072
C     1.113323   -0.761520    0.083830   -0.494577    0.308408   -0.039060
N     0.081481   -1.473973    0.114804    0.604203   -0.087822    0.023813
C    -1.150333   -0.673667    0.014766   -0.112169    0.481388   -0.043051
N    -0.961700    0.668664   -0.091468    0.225596   -0.051319    0.010602
C     0.135221    1.394604   -0.120953   -0.556692   -0.241601    0.004835
O    -2.296571   -1.208356    0.028156   -0.160312   -0.116643    0.005320
O     0.161492    2.688728   -0.227652    0.037171    0.305781   -0.024341
H     2.004337   -1.406421    0.161619   -0.595309    0.200278   -0.032124
H    -1.830841    1.189324   -0.159615    0.166703   -0.153907    0.016753
H     2.300603    1.154465   -0.041882   -0.421054    1.059799   -0.098955
11
* Frequency(26) 1490.0188
C     1.450378    0.418642   -0.004488    0.431076   -0.730701    0.072072
C     1.063207   -0.730269    0.079872   -0.494577    0.308408   -0.039060
N     0.142704   -1.482872    0.117217    0.604203   -0.087822    0.023813
C    -1.161699   -0.624888    0.010404   -0.112169    0.481388   -0.043051
N    -0.938840    0.663464   -0.090394    0.225596   -0.051319    0.010602
C     0.078812    1.370122   -0.120463   -0.556692   -0.241601    0.004835
O    -2.312815   -1.220176    0.028696   -0.160312   -0.116643    0.005320
O     0.165258    2.719713   -0.230118    0.037171    0.305781   -0.024341
H     1.944014   -1.386127    0.158364   -0.595309    0.200278   -0.032124
H    -1.813949    1.173728   -0.157917    0.166703   -0.153907    0.016753
H     2.257938    1.261854   -0.051909   -0.421054    1.059799   -0.098955
11
* Frequency(26) 1490.0188
C     1.484017    0.361623    0.001136    0.431076   -0.730701    0.072072
C     1.024614   -0.706203    0.076824   -0.494577    0.308408   -0.039060
N     0.189852   -1.489725    0.119075    0.604203   -0.087822    0.023813
C    -1.170453   -0.587323    0.007044   -0.112169    0.481388   -0.043051
N    -0.921236    0.659459   -0.089566    0.225596   -0.051319    0.010602
C     0.035371    1.351269   -0.120086   -0.556692   -0.241601    0.004835
O    -2.325325   -1.229278    0.029111   -0.160312   -0.116643    0.005320
O     0.168159    2.743574   -0.232018    0.037171    0.305781   -0.024341
H     1.897560   -1.370499    0.155857   -0.595309    0.200278   -0.032124
H    -1.800940    1.161718   -0.156610    0.166703   -0.153907    0.016753
H     2.225082    1.344555   -0.059631   -0.421054    1.059799   -0.098955
11
* Frequency(26) 1490.0188
C     1.503967    0.327805    0.004472    0.431076   -0.730701    0.072072
C     1.001724   -0.691930    0.075016   -0.494577    0.308408   -0.039060
N     0.217816   -1.493790    0.120178    0.604203   -0.087822    0.023813
C    -1.175644   -0.565044    0.005052   -0.112169    0.481388   -0.043051
N    -0.910795    0.657084   -0.089075    0.225596   -0.051319    0.010602
C     0.009606    1.340087   -0.119862   -0.556692   -0.241601    0.004835
O    -2.332745   -1.234676    0.029357   -0.160312   -0.116643    0.005320
O     0.169879    2.757726   -0.233144    0.037171    0.305781   -0.024341
H     1.870008   -1.361229    0.154370   -0.595309    0.200278   -0.032124
H    -1.793225    1.154595   -0.155834    0.166703   -0.153907    0.016753
H     2.205594    1.393604   -0.064211   -0.421054    1.059799   -0.098955
11
* Frequency(26) 1490.0188
C     1.508069    0.320852    0.005157    0.431076   -0.730701    0.072072
C     0.997018   -0.688995    0.074645   -0.494577    0.308408   -0.039060
N     0.223565   -1.494625    0.120404    0.604203   -0.087822    0.023813
C    -1.176711   -0.560464    0.004642   -0.112169    0.481388   -0.043051
N    -0.908648    0.656596   -0.088975    0.225596   -0.051319    0.010602
C     0.004310    1.337789   -0.119816   -0.556692   -0.241601    0.004835
O    -2.334270   -1.235786    0.029408   -0.160312   -0.116643    0.005320
O     0.170233    2.760636   -0.233376    0.037171    0.305781   -0.024341
H     1.864344   -1.359324    0.154065   -0.595309    0.200278   -0.032124
H    -1.791639    1.153131   -0.155675    0.166703   -0.153907    0.016753
H     2.201588    1.403687   -0.065152   -0.421054    1.059799   -0.098955
11
* Frequency(26) 1490.0188
C     1.495876    0.341519    0.003119    0.431076   -0.730701    0.072072
C     1.011007   -0.697718    0.075749   -0.494577    0.308408   -0.039060
N     0.206475   -1.492141    0.119731    0.604203   -0.087822    0.023813
C    -1.173539   -0.574079    0.005860   -0.112169    0.481388   -0.043051
N    -0.915029    0.658048   -0.089274    0.225596   -0.051319    0.010602
C     0.020055    1.344622   -0.119953   -0.556692   -0.241601    0.004835
O    -2.329736   -1.232487    0.029257   -0.160312   -0.116643    0.005320
O     0.169182    2.751987   -0.232687    0.037171    0.305781   -0.024341
H     1.881181   -1.364989    0.154973   -0.595309    0.200278   -0.032124
H    -1.796354    1.157484   -0.156149    0.166703   -0.153907    0.016753
H     2.213497    1.373712   -0.062353   -0.421054    1.059799   -0.098955
11
* Frequency(26) 1490.0188
C     1.468711    0.387566   -0.001423    0.431076   -0.730701    0.072072
C     1.042174   -0.717153    0.078211   -0.494577    0.308408   -0.039060
N     0.168400   -1.486607    0.118230    0.604203   -0.087822    0.023813
C    -1.166470   -0.604415    0.008573   -0.112169    0.481388   -0.043051
N    -0.929246    0.661281   -0.089943    0.225596   -0.051319    0.010602
C     0.055136    1.359847   -0.120258   -0.556692   -0.241601    0.004835
O    -2.319633   -1.225136    0.028922   -0.160312   -0.116643    0.005320
O     0.166839    2.732718   -0.231153    0.037171    0.305781   -0.024341
H     1.918696   -1.377610    0.156997   -0.595309    0.200278   -0.032124
H    -1.806859    1.167183   -0.157204    0.166703   -0.153907    0.016753
H     2.240031    1.306926   -0.056117   -0.421054    1.059799   -0.098955
11
* Frequency(26) 1490.0188
C     1.429517    0.454003   -0.007976    0.431076   -0.730701    0.072072
C     1.087141   -0.745194    0.081762   -0.494577    0.308408   -0.039060
N     0.113465   -1.478622    0.116065    0.604203   -0.087822    0.023813
C    -1.156271   -0.648184    0.012487   -0.112169    0.481388   -0.043051
N    -0.949757    0.665947   -0.090907    0.225596   -0.051319    0.010602
C     0.105752    1.381814   -0.120697   -0.556692   -0.241601    0.004835
O    -2.305057   -1.214531    0.028438   -0.160312   -0.116643    0.005320
O     0.163460    2.704915   -0.228940    0.037171    0.305781   -0.024341
H     1.972823   -1.395819    0.159918   -0.595309    0.200278   -0.032124
H    -1.822016    1.181176   -0.158728    0.166703   -0.153907    0.016753
H     2.278314    1.210568   -0.047120   -0.421054    1.059799   -0.098955
11
* Frequency(26) 1490.0188
C     1.382541    0.533630   -0.015830    0.431076   -0.730701    0.072072
C     1.141037   -0.778803    0.086019   -0.494577    0.308408   -0.039060
N     0.047623   -1.469052    0.113470    0.604203   -0.087822    0.023813
C    -1.144048   -0.700642    0.017179   -0.112169    0.481388   -0.043051
N    -0.974341    0.671540   -0.092062    0.225596   -0.051319    0.010602
C     0.166417    1.408142   -0.121224   -0.556692   -0.241601    0.004835
O    -2.287588   -1.201820    0.027858   -0.160312   -0.116643    0.005320
O     0.159409    2.671593   -0.226288    0.037171    0.305781   -0.024341
H     2.037696   -1.417644    0.163419   -0.595309    0.200278   -0.032124
H    -1.840182    1.197948   -0.160553    0.166703   -0.153907    0.016753
H     2.324198    1.095078   -0.036337   -0.421054    1.059799   -0.098955
11
* Frequency(26) 1490.0188
C     1.332874    0.617819   -0.024134    0.431076   -0.730701    0.072072
C     1.198020   -0.814336    0.090519   -0.494577    0.308408   -0.039060
N    -0.021991   -1.458933    0.110726    0.604203   -0.087822    0.023813
C    -1.131124   -0.756106    0.022139   -0.112169    0.481388   -0.043051
N    -1.000334    0.677453   -0.093284    0.225596   -0.051319    0.010602
C     0.230557    1.435979   -0.121781   -0.556692   -0.241601    0.004835
O    -2.269117   -1.188381    0.027245   -0.160312   -0.116643    0.005320
O     0.155126    2.636363   -0.223483    0.037171    0.305781   -0.024341
H     2.106285   -1.440720    0.167120   -0.595309    0.200278   -0.032124
H    -1.859389    1.215681   -0.162484    0.166703   -0.153907    0.016753
H     2.372710    0.972972   -0.024935   -0.421054    1.059799   -0.098955
11
* Frequency(26) 1490.0188
C     1.285898    0.697446   -0.031987    0.431076   -0.730701    0.072072
C     1.251916   -0.847944    0.094776   -0.494577    0.308408   -0.039060
N    -0.087833   -1.449363    0.108131    0.604203   -0.087822    0.023813
C    -1.118901   -0.808565    0.026830   -0.112169    0.481388   -0.043051
N    -1.024918    0.683045   -0.094439    0.225596   -0.051319    0.010602
C     0.291221    1.462307   -0.122308   -0.556692   -0.241601    0.004835
O    -2.251647   -1.175670    0.026666   -0.160312   -0.116643    0.005320
O     0.151076    2.603041   -0.220831    0.037171    0.305781   -0.024341
H     2.171158   -1.462545    0.170621   -0.595309    0.200278   -0.032124
H    -1.877555    1.232453   -0.164309    0.166703   -0.153907    0.016753
H     2.418594    0.857482   -0.014152   -0.421054    1.059799   -0.098955
11
* Frequency(26) 1490.0188
C     1.246704    0.763882   -0.038540    0.431076   -0.730701    0.072072
C     1.296884   -0.875985    0.098327   -0.494577    0.308408   -0.039060
N    -0.142768   -1.441378    0.105966    0.604203   -0.087822    0.023813
C    -1.108702   -0.852333    0.030745   -0.112169    0.481388   -0.043051
N    -1.045429    0.687711   -0.095403    0.225596   -0.051319    0.010602
C     0.341837    1.484274   -0.122748   -0.556692   -0.241601    0.004835
O    -2.237072   -1.165064    0.026182   -0.160312   -0.116643    0.005320
O     0.147696    2.575238   -0.218618    0.037171    0.305781   -0.024341
H     2.225285   -1.480754    0.173541   -0.595309    0.200278   -0.032124
H    -1.892712    1.246446   -0.165832    0.166703   -0.153907    0.016753
H     2.456877    0.761123   -0.005155   -0.421054    1.059799   -0.098955
11
* Frequency(26) 1490.0188
C     1.219539    0.809929   -0.043082    0.431076   -0.730701    0.072072
C     1.328051   -0.895421    0.100789   -0.494577    0.308408   -0.039060
N    -0.180843   -1.435843    0.104465    0.604203   -0.087822    0.023813
C    -1.101633   -0.882669    0.033458   -0.112169    0.481388   -0.043051
N    -1.059646    0.690945   -0.096071    0.225596   -0.051319    0.010602
C     0.376918    1.499499   -0.123053   -0.556692   -0.241601    0.004835
O    -2.226969   -1.157714    0.025847   -0.160312   -0.116643    0.005320
O     0.145354    2.555969   -0.217084    0.037171    0.305781   -0.024341
H     2.262799   -1.493375    0.175566   -0.595309    0.200278   -0.032124
H    -1.903217    1.256145   -0.166888    0.166703   -0.153907    0.016753
H     2.483411    0.694337    0.001081   -0.421054    1.059799   -0.098955
11
* Frequency(26) 1490.0188
C     1.207347    0.830596   -0.045121    0.431076   -0.730701    0.072072
C     1.342039   -0.904144    0.101894   -0.494577    0.308408   -0.039060
N    -0.197933   -1.433360    0.103792    0.604203   -0.087822    0.023813
C    -1.098461   -0.896284    0.034675   -0.112169    0.481388   -0.043051
N    -1.066026    0.692396   -0.096371    0.225596   -0.051319    0.010602
C     0.392663    1.506332   -0.123189   -0.556692   -0.241601    0.004835
O    -2.222435   -1.154414    0.025696   -0.160312   -0.116643    0.005320
O     0.144302    2.547320   -0.216395    0.037171    0.305781   -0.024341
H     2.279637   -1.499040    0.176474   -0.595309    0.200278   -0.032124
H    -1.907932    1.260498   -0.167362    0.166703   -0.153907    0.016753
H     2.495320    0.664362    0.003880   -0.421054    1.059799   -0.098955
11
* Frequency(26) 1490.0188
C     1.211448    0.823644   -0.044435    0.431076   -0.730701    0.072072
C     1.337334   -0.901209    0.101522   -0.494577    0.308408   -0.039060
N    -0.192184   -1.434195    0.104018    0.604203   -0.087822    0.023813
C    -1.099528   -0.891704    0.034266   -0.112169    0.481388   -0.043051
N    -1.063880    0.691908   -0.096270    0.225596   -0.051319    0.010602
C     0.387367    1.504033   -0.123143   -0.556692   -0.241601    0.004835
O    -2.223960   -1.155524    0.025747   -0.160312   -0.116643    0.005320
O     0.144656    2.550230   -0.216627    0.037171    0.305781   -0.024341
H     2.273973   -1.497134    0.176169   -0.595309    0.200278   -0.032124
H    -1.906346    1.259034   -0.167203    0.166703   -0.153907    0.016753
H     2.491313    0.674445    0.002938   -0.421054    1.059799   -0.098955
11
* Frequency(26) 1490.0188
C     1.231399    0.789826   -0.041099    0.431076   -0.730701    0.072072
C     1.314444   -0.886935    0.099714   -0.494577    0.308408   -0.039060
N    -0.164220   -1.438260    0.105120    0.604203   -0.087822    0.023813
C    -1.104719   -0.869425    0.032273   -0.112169    0.481388   -0.043051
N    -1.053439    0.689533   -0.095779    0.225596   -0.051319    0.010602
C     0.361602    1.492852   -0.122920   -0.556692   -0.241601    0.004835
O    -2.231380   -1.160923    0.025993   -0.160312   -0.116643    0.005320
O     0.146376    2.564382   -0.217753    0.037171    0.305781   -0.024341
H     2.246421   -1.487865    0.174682   -0.595309    0.200278   -0.032124
H    -1.898631    1.251911   -0.166427    0.166703   -0.153907    0.016753
H     2.471826    0.723495   -0.001641   -0.421054    1.059799   -0.098955
11
* Frequency(26) 1490.0188
C     1.265037    0.732806   -0.035475    0.431076   -0.730701    0.072072
C     1.275850   -0.862869    0.096666   -0.494577    0.308408   -0.039060
N    -0.117072   -1.445113    0.106979    0.604203   -0.087822    0.023813
C    -1.113472   -0.831860    0.028914   -0.112169    0.481388   -0.043051
N    -1.035835    0.685528   -0.094952    0.225596   -0.051319    0.010602
C     0.318161    1.473998   -0.122542   -0.556692   -0.241601    0.004835
O    -2.243889   -1.170025    0.026408   -0.160312   -0.116643    0.005320
O     0.149277    2.588243   -0.219653    0.037171    0.305781   -0.024341
H     2.199967   -1.472237    0.172175   -0.595309    0.200278   -0.032124
H    -1.885622    1.239901   -0.165120    0.166703   -0.153907    0.016753
H     2.438970    0.806195   -0.009363   -0.421054    1.059799   -0.098955
11
* Frequency(26) 1490.0188
C     1.308718    0.658765   -0.028172    0.431076   -0.730701    0.072072
C     1.225735   -0.831618    0.092708   -0.494577    0.308408   -0.039060
N    -0.055848   -1.454012    0.109392    0.604203   -0.087822    0.023813
C    -1.124838   -0.783081    0.024551   -0.112169    0.481388   -0.043051
N    -1.012975    0.680328   -0.093878    0.225596   -0.051319    0.010602
C     0.261752    1.449517   -0.122052   -0.556692   -0.241601    0.004835
O    -2.260134   -1.181844    0.026947   -0.160312   -0.116643    0.005320
O     0.153043    2.619228   -0.222119    0.037171    0.305781   -0.024341
H     2.139644   -1.451942    0.168920   -0.595309    0.200278   -0.032124
H    -1.868730    1.224305   -0.163422    0.166703   -0.153907    0.016753
H     2.396305    0.913584   -0.019390   -0.421054    1.059799   -0.098955
11
* Frequency(26) 1490.0188
C     1.357708    0.575724   -0.019982    0.431076   -0.730701    0.072072
C     1.169529   -0.796569    0.088269   -0.494577    0.308408   -0.039060
N     0.012816   -1.463992    0.112098    0.604203   -0.087822    0.023813
C    -1.137586   -0.728374    0.019659   -0.112169    0.481388   -0.043051
N    -0.987337    0.674496   -0.092673    0.225596   -0.051319    0.010602
C     0.198487    1.422060   -0.121503   -0.556692   -0.241601    0.004835
O    -2.278352   -1.195100    0.027552   -0.160312   -0.116643    0.005320
O     0.157268    2.653978   -0.224886    0.037171    0.305781   -0.024341
H     2.071990   -1.429182    0.165269   -0.595309    0.200278   -0.032124
H    -1.849786    1.206815   -0.161518    0.166703   -0.153907    0.016753
H     2.348454    1.034025   -0.030636   -0.421054    1.059799   -0.098955
