11
* (null), Energy   -1000.0000000
C     1.591454    0.406609    0.009810   -0.008543    0.025489    0.307692
C     1.402862   -0.965542    0.118363    0.012788   -0.038411   -0.463260
N     0.246024   -1.632751    0.142050   -0.009593    0.029158    0.344281
C    -0.904486   -0.897558    0.049520   -0.005574    0.015996    0.192609
N    -0.754011    0.505509   -0.063362    0.003625   -0.011552   -0.140549
C     0.431975    1.252895   -0.092416   -0.006359    0.019126    0.230409
O    -2.045071   -1.364389    0.057523    0.003167   -0.010781   -0.118283
O     0.390516    2.484935   -0.194533    0.003007   -0.006622   -0.083880
H     2.305441   -1.598210    0.195810    0.043619   -0.132666   -1.592816
H    -1.616489    1.037825   -0.130328    0.023144   -0.071435   -0.867047
H     2.582079    0.864994   -0.000426    0.009789   -0.028852   -0.349278
11
* Frequency(9)  443.6641
C     1.590483    0.409506    0.044778   -0.008543    0.025489    0.307692
C     1.404315   -0.969907    0.065716    0.012788   -0.038411   -0.463260
N     0.244934   -1.629437    0.181175   -0.009593    0.029158    0.344281
C    -0.905120   -0.895740    0.071409   -0.005574    0.015996    0.192609
N    -0.753599    0.504196   -0.079334    0.003625   -0.011552   -0.140549
C     0.431252    1.255069   -0.066231   -0.006359    0.019126    0.230409
O    -2.044711   -1.365614    0.044081    0.003167   -0.010781   -0.118283
O     0.390858    2.484182   -0.204066    0.003007   -0.006622   -0.083880
H     2.310398   -1.613287    0.014795    0.043619   -0.132666   -1.592816
H    -1.613859    1.029707   -0.228863    0.023144   -0.071435   -0.867047
H     2.583192    0.861715   -0.040120    0.009789   -0.028852   -0.349278
11
* Frequency(9)  443.6641
C     1.589618    0.412089    0.075956   -0.008543    0.025489    0.307692
C     1.405611   -0.973799    0.018774    0.012788   -0.038411   -0.463260
N     0.243962   -1.626482    0.216061   -0.009593    0.029158    0.344281
C    -0.905685   -0.894120    0.090926   -0.005574    0.015996    0.192609
N    -0.753232    0.503026   -0.093576    0.003625   -0.011552   -0.140549
C     0.430608    1.257007   -0.042884   -0.006359    0.019126    0.230409
O    -2.044390   -1.366707    0.032095    0.003167   -0.010781   -0.118283
O     0.391163    2.483511   -0.212565    0.003007   -0.006622   -0.083880
H     2.314818   -1.626730   -0.146605    0.043619   -0.132666   -1.592816
H    -1.611513    1.022468   -0.316721    0.023144   -0.071435   -0.867047
H     2.584184    0.858791   -0.075512    0.009789   -0.028852   -0.349278
11
* Frequency(9)  443.6641
C     1.588951    0.414078    0.099967   -0.008543    0.025489    0.307692
C     1.406609   -0.976797   -0.017376    0.012788   -0.038411   -0.463260
N     0.243213   -1.624207    0.242927   -0.009593    0.029158    0.344281
C    -0.906120   -0.892871    0.105956   -0.005574    0.015996    0.192609
N    -0.752949    0.502124   -0.104544    0.003625   -0.011552   -0.140549
C     0.430112    1.258499   -0.024904   -0.006359    0.019126    0.230409
O    -2.044143   -1.367548    0.022865    0.003167   -0.010781   -0.118283
O     0.391397    2.482995   -0.219111    0.003007   -0.006622   -0.083880
H     2.318222   -1.637082   -0.270898    0.043619   -0.132666   -1.592816
H    -1.609707    1.016894   -0.384380    0.023144   -0.071435   -0.867047
H     2.584948    0.856540   -0.102767    0.009789   -0.028852   -0.349278
11
* Frequency(9)  443.6641
C     1.588556    0.415257    0.114207   -0.008543    0.025489    0.307692
C     1.407201   -0.978574   -0.038816    0.012788   -0.038411   -0.463260
N     0.242769   -1.622858    0.258861   -0.009593    0.029158    0.344281
C    -0.906378   -0.892131    0.114870   -0.005574    0.015996    0.192609
N    -0.752781    0.501590   -0.111049    0.003625   -0.011552   -0.140549
C     0.429817    1.259384   -0.014241   -0.006359    0.019126    0.230409
O    -2.043996   -1.368047    0.017391    0.003167   -0.010781   -0.118283
O     0.391537    2.482688   -0.222993    0.003007   -0.006622   -0.083880
H     2.320240   -1.643222   -0.344617    0.043619   -0.132666   -1.592816
H    -1.608636    1.013588   -0.424508    0.023144   -0.071435   -0.867047
H     2.585401    0.855204   -0.118932    0.009789   -0.028852   -0.349278
11
* Frequency(9)  443.6641
C     1.588474    0.415500    0.117135   -0.008543    0.025489    0.307692
C     1.407323   -0.978940   -0.043224    0.012788   -0.038411   -0.463260
N     0.242678   -1.622580    0.262136   -0.009593    0.029158    0.344281
C    -0.906431   -0.891979    0.116703   -0.005574    0.015996    0.192609
N    -0.752747    0.501480   -0.112386    0.003625   -0.011552   -0.140549
C     0.429757    1.259566   -0.012048   -0.006359    0.019126    0.230409
O    -2.043966   -1.368149    0.016265    0.003167   -0.010781   -0.118283
O     0.391565    2.482625   -0.223791    0.003007   -0.006622   -0.083880
H     2.320655   -1.644484   -0.359771    0.043619   -0.132666   -1.592816
H    -1.608416    1.012908   -0.432758    0.023144   -0.071435   -0.867047
H     2.585494    0.854930   -0.122256    0.009789   -0.028852   -0.349278
11
* Frequency(9)  443.6641
C     1.588716    0.414779    0.108432   -0.008543    0.025489    0.307692
C     1.406961   -0.977853   -0.030121    0.012788   -0.038411   -0.463260
N     0.242949   -1.623405    0.252399   -0.009593    0.029158    0.344281
C    -0.906273   -0.892431    0.111255   -0.005574    0.015996    0.192609
N    -0.752849    0.501806   -0.108411    0.003625   -0.011552   -0.140549
C     0.429937    1.259025   -0.018565   -0.006359    0.019126    0.230409
O    -2.044056   -1.367845    0.019611    0.003167   -0.010781   -0.118283
O     0.391480    2.482812   -0.221418    0.003007   -0.006622   -0.083880
H     2.319422   -1.640732   -0.314720    0.043619   -0.132666   -1.592816
H    -1.609071    1.014928   -0.408234    0.023144   -0.071435   -0.867047
H     2.585217    0.855746   -0.112377    0.009789   -0.028852   -0.349278
11
* Frequency(9)  443.6641
C     1.589254    0.413173    0.089042   -0.008543    0.025489    0.307692
C     1.406155   -0.975433   -0.000928    0.012788   -0.038411   -0.463260
N     0.243554   -1.625242    0.230703   -0.009593    0.029158    0.344281
C    -0.905922   -0.893439    0.099117   -0.005574    0.015996    0.192609
N    -0.753078    0.502534   -0.099554    0.003625   -0.011552   -0.140549
C     0.430338    1.257820   -0.033085   -0.006359    0.019126    0.230409
O    -2.044255   -1.367165    0.027065    0.003167   -0.010781   -0.118283
O     0.391291    2.483230   -0.216132    0.003007   -0.006622   -0.083880
H     2.316673   -1.632372   -0.214345    0.043619   -0.132666   -1.592816
H    -1.610529    1.019430   -0.353595    0.023144   -0.071435   -0.867047
H     2.584600    0.857564   -0.090366    0.009789   -0.028852   -0.349278
11
* Frequency(9)  443.6641
C     1.590031    0.410855    0.061066   -0.008543    0.025489    0.307692
C     1.404992   -0.971940    0.041193    0.012788   -0.038411   -0.463260
N     0.244426   -1.627893    0.199400   -0.009593    0.029158    0.344281
C    -0.905415   -0.894894    0.081605   -0.005574    0.015996    0.192609
N    -0.753407    0.503585   -0.086775    0.003625   -0.011552   -0.140549
C     0.430916    1.256081   -0.054034   -0.006359    0.019126    0.230409
O    -2.044543   -1.366185    0.037819    0.003167   -0.010781   -0.118283
O     0.391017    2.483832   -0.208506    0.003007   -0.006622   -0.083880
H     2.312707   -1.620310   -0.069524    0.043619   -0.132666   -1.592816
H    -1.612633    1.025925   -0.274762    0.023144   -0.071435   -0.867047
H     2.583710    0.860187   -0.058609    0.009789   -0.028852   -0.349278
11
* Frequency(9)  443.6641
C     1.590962    0.408078    0.027536   -0.008543    0.025489    0.307692
C     1.403599   -0.967755    0.091676    0.012788   -0.038411   -0.463260
N     0.245471   -1.631071    0.161883   -0.009593    0.029158    0.344281
C    -0.904808   -0.896637    0.060615   -0.005574    0.015996    0.192609
N    -0.753802    0.504844   -0.071459    0.003625   -0.011552   -0.140549
C     0.431609    1.253997   -0.079143   -0.006359    0.019126    0.230409
O    -2.044888   -1.365010    0.050709    0.003167   -0.010781   -0.118283
O     0.390689    2.484553   -0.199365    0.003007   -0.006622   -0.083880
H     2.307954   -1.605853    0.104051    0.043619   -0.132666   -1.592816
H    -1.615156    1.033710   -0.180277    0.023144   -0.071435   -0.867047
H     2.582643    0.863331   -0.020547    0.009789   -0.028852   -0.349278
11
* Frequency(9)  443.6641
C     1.591947    0.405141   -0.007915   -0.008543    0.025489    0.307692
C     1.402125   -0.963329    0.145051    0.012788   -0.038411   -0.463260
N     0.246576   -1.634430    0.122216   -0.009593    0.029158    0.344281
C    -0.904165   -0.898480    0.038424   -0.005574    0.015996    0.192609
N    -0.754220    0.506175   -0.055265    0.003625   -0.011552   -0.140549
C     0.432341    1.251793   -0.105689   -0.006359    0.019126    0.230409
O    -2.045253   -1.363768    0.064337    0.003167   -0.010781   -0.118283
O     0.390343    2.485316   -0.189701    0.003007   -0.006622   -0.083880
H     2.302928   -1.590567    0.287569    0.043619   -0.132666   -1.592816
H    -1.617822    1.041940   -0.080379    0.023144   -0.071435   -0.867047
H     2.581515    0.866656    0.019695    0.009789   -0.028852   -0.349278
11
* Frequency(9)  443.6641
C     1.592877    0.402363   -0.041445   -0.008543    0.025489    0.307692
C     1.400732   -0.959143    0.195534    0.012788   -0.038411   -0.463260
N     0.247622   -1.637608    0.084699   -0.009593    0.029158    0.344281
C    -0.903558   -0.900223    0.017434   -0.005574    0.015996    0.192609
N    -0.754615    0.507434   -0.039949    0.003625   -0.011552   -0.140549
C     0.433035    1.249709   -0.130798   -0.006359    0.019126    0.230409
O    -2.045598   -1.362593    0.077227    0.003167   -0.010781   -0.118283
O     0.390015    2.486038   -0.180560    0.003007   -0.006622   -0.083880
H     2.298175   -1.576110    0.461144    0.043619   -0.132666   -1.592816
H    -1.620344    1.049725    0.014106    0.023144   -0.071435   -0.867047
H     2.580449    0.869800    0.057757    0.009789   -0.028852   -0.349278
11
* Frequency(9)  443.6641
C     1.593654    0.400046   -0.069421   -0.008543    0.025489    0.307692
C     1.399569   -0.955651    0.237654    0.012788   -0.038411   -0.463260
N     0.248494   -1.640259    0.053396   -0.009593    0.029158    0.344281
C    -0.903051   -0.901677   -0.000078   -0.005574    0.015996    0.192609
N    -0.754945    0.508484   -0.027170    0.003625   -0.011552   -0.140549
C     0.433613    1.247970   -0.151747   -0.006359    0.019126    0.230409
O    -2.045886   -1.361613    0.087981    0.003167   -0.010781   -0.118283
O     0.389742    2.486640   -0.172934    0.003007   -0.006622   -0.083880
H     2.294209   -1.564048    0.605965    0.043619   -0.132666   -1.592816
H    -1.622449    1.056220    0.092940    0.023144   -0.071435   -0.867047
H     2.579559    0.872423    0.089514    0.009789   -0.028852   -0.349278
11
* Frequency(9)  443.6641
C     1.594193    0.398439   -0.088811   -0.008543    0.025489    0.307692
C     1.398763   -0.953230    0.266848    0.012788   -0.038411   -0.463260
N     0.249099   -1.642096    0.031701   -0.009593    0.029158    0.344281
C    -0.902700   -0.902685   -0.012216   -0.005574    0.015996    0.192609
N    -0.755173    0.509212   -0.018313    0.003625   -0.011552   -0.140549
C     0.434013    1.246765   -0.166267   -0.006359    0.019126    0.230409
O    -2.046086   -1.360933    0.095435    0.003167   -0.010781   -0.118283
O     0.389552    2.487057   -0.167648    0.003007   -0.006622   -0.083880
H     2.291460   -1.555688    0.706340    0.043619   -0.132666   -1.592816
H    -1.623907    1.060721    0.147579    0.023144   -0.071435   -0.867047
H     2.578942    0.874241    0.111525    0.009789   -0.028852   -0.349278
11
* Frequency(9)  443.6641
C     1.594434    0.397719   -0.097514   -0.008543    0.025489    0.307692
C     1.398401   -0.952144    0.279950    0.012788   -0.038411   -0.463260
N     0.249370   -1.642921    0.021963   -0.009593    0.029158    0.344281
C    -0.902542   -0.903138   -0.017663   -0.005574    0.015996    0.192609
N    -0.755275    0.509539   -0.014338    0.003625   -0.011552   -0.140549
C     0.434193    1.246224   -0.172784   -0.006359    0.019126    0.230409
O    -2.046175   -1.360628    0.098781    0.003167   -0.010781   -0.118283
O     0.389467    2.487244   -0.165275    0.003007   -0.006622   -0.083880
H     2.290227   -1.551936    0.751391    0.043619   -0.132666   -1.592816
H    -1.624562    1.062742    0.172102    0.023144   -0.071435   -0.867047
H     2.578665    0.875057    0.121404    0.009789   -0.028852   -0.349278
11
* Frequency(9)  443.6641
C     1.594353    0.397961   -0.094586   -0.008543    0.025489    0.307692
C     1.398523   -0.952509    0.275543    0.012788   -0.038411   -0.463260
N     0.249279   -1.642644    0.025239   -0.009593    0.029158    0.344281
C    -0.902595   -0.902985   -0.015831   -0.005574    0.015996    0.192609
N    -0.755241    0.509429   -0.015675    0.003625   -0.011552   -0.140549
C     0.434133    1.246406   -0.170591   -0.006359    0.019126    0.230409
O    -2.046145   -1.360731    0.097655    0.003167   -0.010781   -0.118283
O     0.389496    2.487181   -0.166074    0.003007   -0.006622   -0.083880
H     2.290642   -1.553198    0.736237    0.043619   -0.132666   -1.592816
H    -1.624341    1.062062    0.163853    0.023144   -0.071435   -0.867047
H     2.578758    0.874783    0.118081    0.009789   -0.028852   -0.349278
11
* Frequency(9)  443.6641
C     1.593958    0.399141   -0.080346   -0.008543    0.025489    0.307692
C     1.399115   -0.954287    0.254102    0.012788   -0.038411   -0.463260
N     0.248835   -1.641294    0.041173   -0.009593    0.029158    0.344281
C    -0.902853   -0.902245   -0.006917   -0.005574    0.015996    0.192609
N    -0.755073    0.508894   -0.022180    0.003625   -0.011552   -0.140549
C     0.433839    1.247291   -0.159928   -0.006359    0.019126    0.230409
O    -2.045999   -1.361230    0.092181    0.003167   -0.010781   -0.118283
O     0.389635    2.486875   -0.169956    0.003007   -0.006622   -0.083880
H     2.292660   -1.559338    0.662518    0.043619   -0.132666   -1.592816
H    -1.623270    1.058756    0.123724    0.023144   -0.071435   -0.867047
H     2.579211    0.873447    0.101915    0.009789   -0.028852   -0.349278
11
* Frequency(9)  443.6641
C     1.593291    0.401130   -0.056335   -0.008543    0.025489    0.307692
C     1.400113   -0.957284    0.217952    0.012788   -0.038411   -0.463260
N     0.248086   -1.639019    0.068038   -0.009593    0.029158    0.344281
C    -0.903288   -0.900997    0.008114   -0.005574    0.015996    0.192609
N    -0.754790    0.507993   -0.033147    0.003625   -0.011552   -0.140549
C     0.433342    1.248784   -0.141948   -0.006359    0.019126    0.230409
O    -2.045752   -1.362071    0.082951    0.003167   -0.010781   -0.118283
O     0.389870    2.486358   -0.176501    0.003007   -0.006622   -0.083880
H     2.296064   -1.569690    0.538225    0.043619   -0.132666   -1.592816
H    -1.621464    1.053182    0.056065    0.023144   -0.071435   -0.867047
H     2.579975    0.871196    0.074660    0.009789   -0.028852   -0.349278
11
* Frequency(9)  443.6641
C     1.592425    0.403713   -0.025157   -0.008543    0.025489    0.307692
C     1.401409   -0.961177    0.171010    0.012788   -0.038411   -0.463260
N     0.247114   -1.636064    0.102924   -0.009593    0.029158    0.344281
C    -0.903853   -0.899376    0.027631   -0.005574    0.015996    0.192609
N    -0.754423    0.506822   -0.047389    0.003625   -0.011552   -0.140549
C     0.432698    1.250722   -0.118601   -0.006359    0.019126    0.230409
O    -2.045431   -1.363164    0.070965    0.003167   -0.010781   -0.118283
O     0.390174    2.485687   -0.185001    0.003007   -0.006622   -0.083880
H     2.300484   -1.583133    0.376825    0.043619   -0.132666   -1.592816
H    -1.619119    1.045943   -0.031792    0.023144   -0.071435   -0.867047
H     2.580967    0.868272    0.039268    0.009789   -0.028852   -0.349278
11
* Frequency(9)  443.6641
C     1.591454    0.406609    0.009810   -0.008543    0.025489    0.307692
C     1.402862   -0.965542    0.118363    0.012788   -0.038411   -0.463260
N     0.246024   -1.632751    0.142050   -0.009593    0.029158    0.344281
C    -0.904486   -0.897558    0.049520   -0.005574    0.015996    0.192609
N    -0.754011    0.505509   -0.063362    0.003625   -0.011552   -0.140549
C     0.431975    1.252895   -0.092416   -0.006359    0.019126    0.230409
O    -2.045071   -1.364389    0.057523    0.003167   -0.010781   -0.118283
O     0.390516    2.484935   -0.194533    0.003007   -0.006622   -0.083880
H     2.305441   -1.598210    0.195810    0.043619   -0.132666   -1.592816
H    -1.616489    1.037825   -0.130328    0.023144   -0.071435   -0.867047
H     2.582079    0.864994   -0.000426    0.009789   -0.028852   -0.349278
