11
* (null), Energy   -1000.0000000
C     1.357708    0.575724   -0.019982   -0.001063    0.002672    0.030892
C     1.169529   -0.796569    0.088269   -0.005223    0.015186    0.181232
N     0.012816   -1.463992    0.112098    0.001720   -0.005617   -0.066641
C    -1.137586   -0.728374    0.019659    0.005453   -0.016474   -0.199037
N    -0.987337    0.674496   -0.092673    0.001277   -0.003158   -0.038060
C     0.198487    1.422060   -0.121503   -0.007399    0.022351    0.271245
O    -2.278352   -1.195100    0.027552   -0.001736    0.005777    0.069507
O     0.157268    2.653978   -0.224886    0.001504   -0.004647   -0.054040
H     2.071990   -1.429182    0.165269    0.000637   -0.002034   -0.028543
H    -1.849786    1.206815   -0.161518    0.006495   -0.016930   -0.209805
H     2.348454    1.034025   -0.030636    0.052988   -0.159851   -1.940262
11
* Frequency(14)  725.0724
C     1.357587    0.576028   -0.016471   -0.001063    0.002672    0.030892
C     1.168935   -0.794844    0.108865   -0.005223    0.015186    0.181232
N     0.013012   -1.464631    0.104525    0.001720   -0.005617   -0.066641
C    -1.136966   -0.730246   -0.002961    0.005453   -0.016474   -0.199037
N    -0.987192    0.674137   -0.096998    0.001277   -0.003158   -0.038060
C     0.197646    1.424600   -0.090677   -0.007399    0.022351    0.271245
O    -2.278550   -1.194444    0.035451   -0.001736    0.005777    0.069507
O     0.157438    2.653450   -0.231027    0.001504   -0.004647   -0.054040
H     2.072063   -1.429413    0.162026    0.000637   -0.002034   -0.028543
H    -1.849047    1.204891   -0.185362    0.006495   -0.016930   -0.209805
H     2.354476    1.015858   -0.251137    0.052988   -0.159851   -1.940262
11
* Frequency(14)  725.0724
C     1.357479    0.576299   -0.013341   -0.001063    0.002672    0.030892
C     1.168406   -0.793305    0.127229   -0.005223    0.015186    0.181232
N     0.013186   -1.465200    0.097772    0.001720   -0.005617   -0.066641
C    -1.136414   -0.731916   -0.023129    0.005453   -0.016474   -0.199037
N    -0.987063    0.673817   -0.100855    0.001277   -0.003158   -0.038060
C     0.196896    1.426865   -0.063192   -0.007399    0.022351    0.271245
O    -2.278726   -1.193858    0.042494   -0.001736    0.005777    0.069507
O     0.157591    2.652979   -0.236503    0.001504   -0.004647   -0.054040
H     2.072127   -1.429619    0.159133    0.000637   -0.002034   -0.028543
H    -1.848389    1.203175   -0.206621    0.006495   -0.016930   -0.209805
H     2.359845    0.999661   -0.447743    0.052988   -0.159851   -1.940262
11
* Frequency(14)  725.0724
C     1.357396    0.576507   -0.010930   -0.001063    0.002672    0.030892
C     1.167998   -0.792120    0.141372   -0.005223    0.015186    0.181232
N     0.013320   -1.465638    0.092572    0.001720   -0.005617   -0.066641
C    -1.135988   -0.733201   -0.038661    0.005453   -0.016474   -0.199037
N    -0.986963    0.673571   -0.103825    0.001277   -0.003158   -0.038060
C     0.196319    1.428609   -0.042026   -0.007399    0.022351    0.271245
O    -2.278861   -1.193407    0.047918   -0.001736    0.005777    0.069507
O     0.157708    2.652616   -0.240720    0.001504   -0.004647   -0.054040
H     2.072177   -1.429778    0.156906    0.000637   -0.002034   -0.028543
H    -1.847882    1.201854   -0.222993    0.006495   -0.016930   -0.209805
H     2.363980    0.987187   -0.599149    0.052988   -0.159851   -1.940262
11
* Frequency(14)  725.0724
C     1.357347    0.576631   -0.009500   -0.001063    0.002672    0.030892
C     1.167757   -0.791417    0.149759   -0.005223    0.015186    0.181232
N     0.013400   -1.465898    0.089487    0.001720   -0.005617   -0.066641
C    -1.135736   -0.733964   -0.047873    0.005453   -0.016474   -0.199037
N    -0.986904    0.673425   -0.105586    0.001277   -0.003158   -0.038060
C     0.195976    1.429644   -0.029472   -0.007399    0.022351    0.271245
O    -2.278941   -1.193140    0.051135   -0.001736    0.005777    0.069507
O     0.157778    2.652401   -0.243221    0.001504   -0.004647   -0.054040
H     2.072206   -1.429872    0.155585    0.000637   -0.002034   -0.028543
H    -1.847582    1.201070   -0.232703    0.006495   -0.016930   -0.209805
H     2.366432    0.979789   -0.688948    0.052988   -0.159851   -1.940262
11
* Frequency(14)  725.0724
C     1.357337    0.576656   -0.009206   -0.001063    0.002672    0.030892
C     1.167707   -0.791272    0.151484   -0.005223    0.015186    0.181232
N     0.013416   -1.465952    0.088853    0.001720   -0.005617   -0.066641
C    -1.135684   -0.734120   -0.049766    0.005453   -0.016474   -0.199037
N    -0.986892    0.673395   -0.105948    0.001277   -0.003158   -0.038060
C     0.195906    1.429857   -0.026891   -0.007399    0.022351    0.271245
O    -2.278958   -1.193085    0.051796   -0.001736    0.005777    0.069507
O     0.157792    2.652357   -0.243735    0.001504   -0.004647   -0.054040
H     2.072213   -1.429892    0.155314    0.000637   -0.002034   -0.028543
H    -1.847520    1.200909   -0.234699    0.006495   -0.016930   -0.209805
H     2.366936    0.978268   -0.707408    0.052988   -0.159851   -1.940262
11
* Frequency(14)  725.0724
C     1.357367    0.576581   -0.010080   -0.001063    0.002672    0.030892
C     1.167855   -0.791702    0.146358   -0.005223    0.015186    0.181232
N     0.013368   -1.465793    0.090738    0.001720   -0.005617   -0.066641
C    -1.135838   -0.733654   -0.044137    0.005453   -0.016474   -0.199037
N    -0.986928    0.673484   -0.104872    0.001277   -0.003158   -0.038060
C     0.196115    1.429224   -0.034563   -0.007399    0.022351    0.271245
O    -2.278909   -1.193248    0.049830   -0.001736    0.005777    0.069507
O     0.157750    2.652489   -0.242206    0.001504   -0.004647   -0.054040
H     2.072195   -1.429834    0.156121    0.000637   -0.002034   -0.028543
H    -1.847704    1.201388   -0.228765    0.006495   -0.016930   -0.209805
H     2.365438    0.982789   -0.652530    0.052988   -0.159851   -1.940262
11
* Frequency(14)  725.0724
C     1.357434    0.576412   -0.012027   -0.001063    0.002672    0.030892
C     1.168184   -0.792659    0.134937   -0.005223    0.015186    0.181232
N     0.013259   -1.465439    0.094938    0.001720   -0.005617   -0.066641
C    -1.136182   -0.732616   -0.031594    0.005453   -0.016474   -0.199037
N    -0.987009    0.673683   -0.102473    0.001277   -0.003158   -0.038060
C     0.196581    1.427816   -0.051656   -0.007399    0.022351    0.271245
O    -2.278799   -1.193613    0.045450   -0.001736    0.005777    0.069507
O     0.157655    2.652781   -0.238801    0.001504   -0.004647   -0.054040
H     2.072154   -1.429706    0.157920    0.000637   -0.002034   -0.028543
H    -1.848113    1.202455   -0.215544    0.006495   -0.016930   -0.209805
H     2.362099    0.992862   -0.530260    0.052988   -0.159851   -1.940262
11
* Frequency(14)  725.0724
C     1.357531    0.576169   -0.014835   -0.001063    0.002672    0.030892
C     1.168659   -0.794040    0.118459   -0.005223    0.015186    0.181232
N     0.013103   -1.464928    0.100997    0.001720   -0.005617   -0.066641
C    -1.136678   -0.731118   -0.013497    0.005453   -0.016474   -0.199037
N    -0.987125    0.673970   -0.099013    0.001277   -0.003158   -0.038060
C     0.197254    1.425784   -0.076318   -0.007399    0.022351    0.271245
O    -2.278642   -1.194138    0.039131   -0.001736    0.005777    0.069507
O     0.157518    2.653204   -0.233888    0.001504   -0.004647   -0.054040
H     2.072097   -1.429521    0.160515    0.000637   -0.002034   -0.028543
H    -1.848704    1.203994   -0.196468    0.006495   -0.016930   -0.209805
H     2.357281    1.007396   -0.353848    0.052988   -0.159851   -1.940262
11
* Frequency(14)  725.0724
C     1.357647    0.575878   -0.018202   -0.001063    0.002672    0.030892
C     1.169228   -0.795695    0.098710   -0.005223    0.015186    0.181232
N     0.012915   -1.464316    0.108259    0.001720   -0.005617   -0.066641
C    -1.137272   -0.729323    0.008193    0.005453   -0.016474   -0.199037
N    -0.987264    0.674314   -0.094865    0.001277   -0.003158   -0.038060
C     0.198060    1.423348   -0.105877   -0.007399    0.022351    0.271245
O    -2.278452   -1.194767    0.031556   -0.001736    0.005777    0.069507
O     0.157354    2.653710   -0.227999    0.001504   -0.004647   -0.054040
H     2.072027   -1.429299    0.163625    0.000637   -0.002034   -0.028543
H    -1.849411    1.205839   -0.173605    0.006495   -0.016930   -0.209805
H     2.351507    1.024816   -0.142411    0.052988   -0.159851   -1.940262
11
* Frequency(14)  725.0724
C     1.357769    0.575570   -0.021761   -0.001063    0.002672    0.030892
C     1.169830   -0.797444    0.077829   -0.005223    0.015186    0.181232
N     0.012717   -1.463669    0.115937    0.001720   -0.005617   -0.066641
C    -1.137900   -0.727425    0.031125    0.005453   -0.016474   -0.199037
N    -0.987411    0.674678   -0.090480    0.001277   -0.003158   -0.038060
C     0.198913    1.420773   -0.137129   -0.007399    0.022351    0.271245
O    -2.278252   -1.195433    0.023548   -0.001736    0.005777    0.069507
O     0.157181    2.654246   -0.221772    0.001504   -0.004647   -0.054040
H     2.071954   -1.429065    0.166914    0.000637   -0.002034   -0.028543
H    -1.850160    1.207790   -0.149432    0.006495   -0.016930   -0.209805
H     2.345401    1.043233    0.081139    0.052988   -0.159851   -1.940262
11
* Frequency(14)  725.0724
C     1.357885    0.575279   -0.025128   -0.001063    0.002672    0.030892
C     1.170399   -0.799099    0.058079   -0.005223    0.015186    0.181232
N     0.012529   -1.463057    0.123199    0.001720   -0.005617   -0.066641
C    -1.138494   -0.725630    0.052815    0.005453   -0.016474   -0.199037
N    -0.987550    0.675022   -0.086333    0.001277   -0.003158   -0.038060
C     0.199719    1.418337   -0.166687   -0.007399    0.022351    0.271245
O    -2.278063   -1.196063    0.015973   -0.001736    0.005777    0.069507
O     0.157017    2.654752   -0.215883    0.001504   -0.004647   -0.054040
H     2.071884   -1.428843    0.170024    0.000637   -0.002034   -0.028543
H    -1.850868    1.209635   -0.126569    0.006495   -0.016930   -0.209805
H     2.339627    1.060653    0.292576    0.052988   -0.159851   -1.940262
11
* Frequency(14)  725.0724
C     1.357981    0.575036   -0.027937   -0.001063    0.002672    0.030892
C     1.170874   -0.800480    0.041601   -0.005223    0.015186    0.181232
N     0.012373   -1.462546    0.129258    0.001720   -0.005617   -0.066641
C    -1.138990   -0.724132    0.070912    0.005453   -0.016474   -0.199037
N    -0.987666    0.675309   -0.082872    0.001277   -0.003158   -0.038060
C     0.200392    1.416305   -0.191349   -0.007399    0.022351    0.271245
O    -2.277905   -1.196588    0.009653   -0.001736    0.005777    0.069507
O     0.156880    2.655175   -0.210970    0.001504   -0.004647   -0.054040
H     2.071827   -1.428658    0.172619    0.000637   -0.002034   -0.028543
H    -1.851458    1.211174   -0.107493    0.006495   -0.016930   -0.209805
H     2.334809    1.075187    0.468988    0.052988   -0.159851   -1.940262
11
* Frequency(14)  725.0724
C     1.358048    0.574868   -0.029883   -0.001063    0.002672    0.030892
C     1.171203   -0.801437    0.030180   -0.005223    0.015186    0.181232
N     0.012265   -1.462192    0.133458    0.001720   -0.005617   -0.066641
C    -1.139334   -0.723094    0.083454    0.005453   -0.016474   -0.199037
N    -0.987747    0.675508   -0.080474    0.001277   -0.003158   -0.038060
C     0.200858    1.414896   -0.208442   -0.007399    0.022351    0.271245
O    -2.277796   -1.196952    0.005273   -0.001736    0.005777    0.069507
O     0.156786    2.655467   -0.207565    0.001504   -0.004647   -0.054040
H     2.071786   -1.428530    0.174418    0.000637   -0.002034   -0.028543
H    -1.851867    1.212241   -0.094272    0.006495   -0.016930   -0.209805
H     2.331470    1.085260    0.591258    0.052988   -0.159851   -1.940262
11
* Frequency(14)  725.0724
C     1.358079    0.574792   -0.030757   -0.001063    0.002672    0.030892
C     1.171351   -0.801866    0.025055   -0.005223    0.015186    0.181232
N     0.012216   -1.462033    0.135343    0.001720   -0.005617   -0.066641
C    -1.139488   -0.722628    0.089084    0.005453   -0.016474   -0.199037
N    -0.987783    0.675598   -0.079397    0.001277   -0.003158   -0.038060
C     0.201067    1.414264   -0.216114   -0.007399    0.022351    0.271245
O    -2.277747   -1.197115    0.003307   -0.001736    0.005777    0.069507
O     0.156743    2.655599   -0.206036    0.001504   -0.004647   -0.054040
H     2.071768   -1.428472    0.175225    0.000637   -0.002034   -0.028543
H    -1.852051    1.212720   -0.088337    0.006495   -0.016930   -0.209805
H     2.329972    1.089781    0.646136    0.052988   -0.159851   -1.940262
11
* Frequency(14)  725.0724
C     1.358068    0.574818   -0.030463   -0.001063    0.002672    0.030892
C     1.171301   -0.801722    0.026779   -0.005223    0.015186    0.181232
N     0.012232   -1.462086    0.134709    0.001720   -0.005617   -0.066641
C    -1.139436   -0.722785    0.087190    0.005453   -0.016474   -0.199037
N    -0.987771    0.675568   -0.079759    0.001277   -0.003158   -0.038060
C     0.200997    1.414477   -0.213534   -0.007399    0.022351    0.271245
O    -2.277763   -1.197060    0.003969   -0.001736    0.005777    0.069507
O     0.156757    2.655555   -0.206550    0.001504   -0.004647   -0.054040
H     2.071774   -1.428492    0.174954    0.000637   -0.002034   -0.028543
H    -1.851989    1.212559   -0.090334    0.006495   -0.016930   -0.209805
H     2.330476    1.088260    0.627675    0.052988   -0.159851   -1.940262
11
* Frequency(14)  725.0724
C     1.358019    0.574941   -0.029033   -0.001063    0.002672    0.030892
C     1.171059   -0.801019    0.035167   -0.005223    0.015186    0.181232
N     0.012312   -1.462346    0.131624    0.001720   -0.005617   -0.066641
C    -1.139184   -0.723547    0.077978    0.005453   -0.016474   -0.199037
N    -0.987711    0.675422   -0.081521    0.001277   -0.003158   -0.038060
C     0.200654    1.415511   -0.200980   -0.007399    0.022351    0.271245
O    -2.277844   -1.196793    0.007186   -0.001736    0.005777    0.069507
O     0.156827    2.655340   -0.209051    0.001504   -0.004647   -0.054040
H     2.071804   -1.428586    0.173633    0.000637   -0.002034   -0.028543
H    -1.851689    1.211775   -0.100044    0.006495   -0.016930   -0.209805
H     2.332928    1.080862    0.537877    0.052988   -0.159851   -1.940262
11
* Frequency(14)  725.0724
C     1.357936    0.575150   -0.026623   -0.001063    0.002672    0.030892
C     1.170652   -0.799834    0.049309   -0.005223    0.015186    0.181232
N     0.012446   -1.462785    0.126424    0.001720   -0.005617   -0.066641
C    -1.138758   -0.724833    0.062447    0.005453   -0.016474   -0.199037
N    -0.987612    0.675175   -0.084491    0.001277   -0.003158   -0.038060
C     0.200077    1.417255   -0.179814   -0.007399    0.022351    0.271245
O    -2.277979   -1.196342    0.012610   -0.001736    0.005777    0.069507
O     0.156944    2.654977   -0.213268    0.001504   -0.004647   -0.054040
H     2.071854   -1.428745    0.171405    0.000637   -0.002034   -0.028543
H    -1.851182    1.210454   -0.116416    0.006495   -0.016930   -0.209805
H     2.337063    1.068388    0.386471    0.052988   -0.159851   -1.940262
11
* Frequency(14)  725.0724
C     1.357829    0.575421   -0.023492   -0.001063    0.002672    0.030892
C     1.170122   -0.798295    0.067673   -0.005223    0.015186    0.181232
N     0.012621   -1.463354    0.119671    0.001720   -0.005617   -0.066641
C    -1.138206   -0.726502    0.042278    0.005453   -0.016474   -0.199037
N    -0.987482    0.674855   -0.088347    0.001277   -0.003158   -0.038060
C     0.199327    1.419520   -0.152328   -0.007399    0.022351    0.271245
O    -2.278155   -1.195757    0.019653   -0.001736    0.005777    0.069507
O     0.157097    2.654506   -0.218744    0.001504   -0.004647   -0.054040
H     2.071918   -1.428951    0.168513    0.000637   -0.002034   -0.028543
H    -1.850524    1.208739   -0.137675    0.006495   -0.016930   -0.209805
H     2.342432    1.052191    0.189865    0.052988   -0.159851   -1.940262
11
* Frequency(14)  725.0724
C     1.357708    0.575724   -0.019982   -0.001063    0.002672    0.030892
C     1.169529   -0.796569    0.088269   -0.005223    0.015186    0.181232
N     0.012816   -1.463992    0.112098    0.001720   -0.005617   -0.066641
C    -1.137586   -0.728374    0.019659    0.005453   -0.016474   -0.199037
N    -0.987337    0.674496   -0.092673    0.001277   -0.003158   -0.038060
C     0.198487    1.422060   -0.121503   -0.007399    0.022351    0.271245
O    -2.278352   -1.195100    0.027552   -0.001736    0.005777    0.069507
O     0.157268    2.653978   -0.224886    0.001504   -0.004647   -0.054040
H     2.071990   -1.429182    0.165269    0.000637   -0.002034   -0.028543
H    -1.849786    1.206815   -0.161518    0.006495   -0.016930   -0.209805
H     2.348454    1.034025   -0.030636    0.052988   -0.159851   -1.940262
