11
* (null), Energy   -1000.0000000
C     1.357708    0.575724   -0.019982    0.008363   -0.001001    0.000310
C     1.169529   -0.796569    0.088269   -0.132734    0.106349   -0.012439
N     0.012816   -1.463992    0.112098   -0.003629   -0.002984    0.000147
C    -1.137586   -0.728374    0.019659    0.005364   -0.000186    0.000161
N    -0.987337    0.674496   -0.092673   -0.000299    0.000196   -0.000023
C     0.198487    1.422060   -0.121503    0.001843   -0.000823    0.000118
O    -2.278352   -1.195100    0.027552   -0.001442   -0.000421   -0.000003
O     0.157268    2.653978   -0.224886   -0.000385    0.000959   -0.000089
H     2.071990   -1.429182    0.165269    1.608163   -1.159460    0.140001
H    -1.849786    1.206815   -0.161518    0.004866   -0.000254    0.000163
H     2.348454    1.034025   -0.030636   -0.133348   -0.053332    0.000759
11
* Frequency(30) 3039.1579
C     1.358658    0.575610   -0.019946    0.008363   -0.001001    0.000310
C     1.154444   -0.784483    0.086855   -0.132734    0.106349   -0.012439
N     0.012404   -1.464332    0.112115   -0.003629   -0.002984    0.000147
C    -1.136976   -0.728395    0.019677    0.005364   -0.000186    0.000161
N    -0.987371    0.674518   -0.092675   -0.000299    0.000196   -0.000023
C     0.198696    1.421967   -0.121489    0.001843   -0.000823    0.000118
O    -2.278516   -1.195148    0.027552   -0.001442   -0.000421   -0.000003
O     0.157224    2.654087   -0.224896   -0.000385    0.000959   -0.000089
H     2.254750   -1.560949    0.181180    1.608163   -1.159460    0.140001
H    -1.849233    1.206786   -0.161500    0.004866   -0.000254    0.000163
H     2.333300    1.027964   -0.030550   -0.133348   -0.053332    0.000759
11
* Frequency(30) 3039.1579
C     1.359505    0.575509   -0.019915    0.008363   -0.001001    0.000310
C     1.140994   -0.773707    0.085595   -0.132734    0.106349   -0.012439
N     0.012036   -1.464634    0.112130   -0.003629   -0.002984    0.000147
C    -1.136433   -0.728414    0.019693    0.005364   -0.000186    0.000161
N    -0.987402    0.674538   -0.092678   -0.000299    0.000196   -0.000023
C     0.198883    1.421883   -0.121477    0.001843   -0.000823    0.000118
O    -2.278662   -1.195191    0.027551   -0.001442   -0.000421   -0.000003
O     0.157185    2.654184   -0.224905   -0.000385    0.000959   -0.000089
H     2.417704   -1.678436    0.195366    1.608163   -1.159460    0.140001
H    -1.848739    1.206760   -0.161483    0.004866   -0.000254    0.000163
H     2.319788    1.022560   -0.030473   -0.133348   -0.053332    0.000759
11
* Frequency(30) 3039.1579
C     1.360158    0.575431   -0.019891    0.008363   -0.001001    0.000310
C     1.130637   -0.765408    0.084624   -0.132734    0.106349   -0.012439
N     0.011753   -1.464867    0.112141   -0.003629   -0.002984    0.000147
C    -1.136014   -0.728429    0.019706    0.005364   -0.000186    0.000161
N    -0.987425    0.674553   -0.092680   -0.000299    0.000196   -0.000023
C     0.199027    1.421819   -0.121468    0.001843   -0.000823    0.000118
O    -2.278775   -1.195224    0.027551   -0.001442   -0.000421   -0.000003
O     0.157155    2.654259   -0.224912   -0.000385    0.000959   -0.000089
H     2.543196   -1.768913    0.206291    1.608163   -1.159460    0.140001
H    -1.848360    1.206740   -0.161471    0.004866   -0.000254    0.000163
H     2.309382    1.018398   -0.030414   -0.133348   -0.053332    0.000759
11
* Frequency(30) 3039.1579
C     1.360545    0.575385   -0.019876    0.008363   -0.001001    0.000310
C     1.124493   -0.760486    0.084049   -0.132734    0.106349   -0.012439
N     0.011585   -1.465005    0.112148   -0.003629   -0.002984    0.000147
C    -1.135766   -0.728437    0.019713    0.005364   -0.000186    0.000161
N    -0.987439    0.674563   -0.092681   -0.000299    0.000196   -0.000023
C     0.199112    1.421781   -0.121463    0.001843   -0.000823    0.000118
O    -2.278842   -1.195243    0.027551   -0.001442   -0.000421   -0.000003
O     0.157137    2.654303   -0.224916   -0.000385    0.000959   -0.000089
H     2.617624   -1.822575    0.212770    1.608163   -1.159460    0.140001
H    -1.848135    1.206728   -0.161463    0.004866   -0.000254    0.000163
H     2.303210    1.015930   -0.030378   -0.133348   -0.053332    0.000759
11
* Frequency(30) 3039.1579
C     1.360625    0.575375   -0.019873    0.008363   -0.001001    0.000310
C     1.123231   -0.759474    0.083930   -0.132734    0.106349   -0.012439
N     0.011550   -1.465033    0.112149   -0.003629   -0.002984    0.000147
C    -1.135715   -0.728439    0.019715    0.005364   -0.000186    0.000161
N    -0.987442    0.674564   -0.092681   -0.000299    0.000196   -0.000023
C     0.199129    1.421773   -0.121461    0.001843   -0.000823    0.000118
O    -2.278855   -1.195247    0.027551   -0.001442   -0.000421   -0.000003
O     0.157133    2.654312   -0.224917   -0.000385    0.000959   -0.000089
H     2.632925   -1.833607    0.214102    1.608163   -1.159460    0.140001
H    -1.848088    1.206726   -0.161461    0.004866   -0.000254    0.000163
H     2.301942    1.015422   -0.030371   -0.133348   -0.053332    0.000759
11
* Frequency(30) 3039.1579
C     1.360388    0.575403   -0.019882    0.008363   -0.001001    0.000310
C     1.126985   -0.762482    0.084282   -0.132734    0.106349   -0.012439
N     0.011653   -1.464949    0.112145   -0.003629   -0.002984    0.000147
C    -1.135867   -0.728434    0.019710    0.005364   -0.000186    0.000161
N    -0.987433    0.674559   -0.092680   -0.000299    0.000196   -0.000023
C     0.199077    1.421797   -0.121465    0.001843   -0.000823    0.000118
O    -2.278814   -1.195235    0.027551   -0.001442   -0.000421   -0.000003
O     0.157144    2.654285   -0.224914   -0.000385    0.000959   -0.000089
H     2.587440   -1.800813    0.210143    1.608163   -1.159460    0.140001
H    -1.848226    1.206733   -0.161466    0.004866   -0.000254    0.000163
H     2.305713    1.016931   -0.030393   -0.133348   -0.053332    0.000759
11
* Frequency(30) 3039.1579
C     1.359861    0.575466   -0.019902    0.008363   -0.001001    0.000310
C     1.135349   -0.769184    0.085066   -0.132734    0.106349   -0.012439
N     0.011882   -1.464761    0.112136   -0.003629   -0.002984    0.000147
C    -1.136205   -0.728422    0.019700    0.005364   -0.000186    0.000161
N    -0.987414    0.674547   -0.092679   -0.000299    0.000196   -0.000023
C     0.198961    1.421848   -0.121472    0.001843   -0.000823    0.000118
O    -2.278724   -1.195209    0.027551   -0.001442   -0.000421   -0.000003
O     0.157168    2.654225   -0.224908   -0.000385    0.000959   -0.000089
H     2.486098   -1.727747    0.201320    1.608163   -1.159460    0.140001
H    -1.848533    1.206749   -0.161476    0.004866   -0.000254    0.000163
H     2.314116    1.020291   -0.030441   -0.133348   -0.053332    0.000759
11
* Frequency(30) 3039.1579
C     1.359101    0.575557   -0.019930    0.008363   -0.001001    0.000310
C     1.147418   -0.778854    0.086197   -0.132734    0.106349   -0.012439
N     0.012212   -1.464490    0.112122   -0.003629   -0.002984    0.000147
C    -1.136692   -0.728405    0.019686    0.005364   -0.000186    0.000161
N    -0.987387    0.674529   -0.092677   -0.000299    0.000196   -0.000023
C     0.198794    1.421923   -0.121483    0.001843   -0.000823    0.000118
O    -2.278593   -1.195170    0.027551   -0.001442   -0.000421   -0.000003
O     0.157203    2.654138   -0.224900   -0.000385    0.000959   -0.000089
H     2.339881   -1.622327    0.188591    1.608163   -1.159460    0.140001
H    -1.848975    1.206772   -0.161491    0.004866   -0.000254    0.000163
H     2.326241    1.025141   -0.030510   -0.133348   -0.053332    0.000759
11
* Frequency(30) 3039.1579
C     1.358190    0.575667   -0.019964    0.008363   -0.001001    0.000310
C     1.161882   -0.790443    0.087553   -0.132734    0.106349   -0.012439
N     0.012607   -1.464164    0.112106   -0.003629   -0.002984    0.000147
C    -1.137277   -0.728385    0.019668    0.005364   -0.000186    0.000161
N    -0.987355    0.674507   -0.092674   -0.000299    0.000196   -0.000023
C     0.198593    1.422013   -0.121496    0.001843   -0.000823    0.000118
O    -2.278435   -1.195124    0.027552   -0.001442   -0.000421   -0.000003
O     0.157245    2.654033   -0.224891   -0.000385    0.000959   -0.000089
H     2.164634   -1.495976    0.173335    1.608163   -1.159460    0.140001
H    -1.849505    1.206800   -0.161509    0.004866   -0.000254    0.000163
H     2.340772    1.030952   -0.030592   -0.133348   -0.053332    0.000759
11
* Frequency(30) 3039.1579
C     1.357226    0.575782   -0.019999    0.008363   -0.001001    0.000310
C     1.177175   -0.802696    0.088986   -0.132734    0.106349   -0.012439
N     0.013025   -1.463820    0.112089   -0.003629   -0.002984    0.000147
C    -1.137895   -0.728363    0.019650    0.005364   -0.000186    0.000161
N    -0.987320    0.674485   -0.092671   -0.000299    0.000196   -0.000023
C     0.198380    1.422108   -0.121510    0.001843   -0.000823    0.000118
O    -2.278269   -1.195076    0.027552   -0.001442   -0.000421   -0.000003
O     0.157290    2.653923   -0.224880   -0.000385    0.000959   -0.000089
H     1.979347   -1.362388    0.157204    1.608163   -1.159460    0.140001
H    -1.850066    1.206829   -0.161528    0.004866   -0.000254    0.000163
H     2.356136    1.037097   -0.030680   -0.133348   -0.053332    0.000759
11
* Frequency(30) 3039.1579
C     1.356315    0.575891   -0.020033    0.008363   -0.001001    0.000310
C     1.191640   -0.814285    0.090341   -0.132734    0.106349   -0.012439
N     0.013421   -1.463495    0.112073   -0.003629   -0.002984    0.000147
C    -1.138479   -0.728343    0.019632    0.005364   -0.000186    0.000161
N    -0.987287    0.674464   -0.092669   -0.000299    0.000196   -0.000023
C     0.198180    1.422197   -0.121522    0.001843   -0.000823    0.000118
O    -2.278112   -1.195030    0.027552   -0.001442   -0.000421   -0.000003
O     0.157332    2.653818   -0.224871   -0.000385    0.000959   -0.000089
H     1.804100   -1.236037    0.141948    1.608163   -1.159460    0.140001
H    -1.850596    1.206857   -0.161546    0.004866   -0.000254    0.000163
H     2.370667    1.042909   -0.030763   -0.133348   -0.053332    0.000759
11
* Frequency(30) 3039.1579
C     1.355554    0.575982   -0.020061    0.008363   -0.001001    0.000310
C     1.203708   -0.823955    0.091472   -0.132734    0.106349   -0.012439
N     0.013750   -1.463224    0.112060   -0.003629   -0.002984    0.000147
C    -1.138967   -0.728326    0.019617    0.005364   -0.000186    0.000161
N    -0.987260    0.674446   -0.092667   -0.000299    0.000196   -0.000023
C     0.198012    1.422272   -0.121533    0.001843   -0.000823    0.000118
O    -2.277981   -1.194992    0.027553   -0.001442   -0.000421   -0.000003
O     0.157367    2.653731   -0.224863   -0.000385    0.000959   -0.000089
H     1.657883   -1.130617    0.129219    1.608163   -1.159460    0.140001
H    -1.851039    1.206880   -0.161560    0.004866   -0.000254    0.000163
H     2.382792    1.047758   -0.030832   -0.133348   -0.053332    0.000759
11
* Frequency(30) 3039.1579
C     1.355027    0.576045   -0.020081    0.008363   -0.001001    0.000310
C     1.212073   -0.830656    0.092256   -0.132734    0.106349   -0.012439
N     0.013979   -1.463036    0.112051   -0.003629   -0.002984    0.000147
C    -1.139305   -0.728314    0.019607    0.005364   -0.000186    0.000161
N    -0.987241    0.674433   -0.092665   -0.000299    0.000196   -0.000023
C     0.197896    1.422324   -0.121541    0.001843   -0.000823    0.000118
O    -2.277890   -1.194965    0.027553   -0.001442   -0.000421   -0.000003
O     0.157391    2.653671   -0.224857   -0.000385    0.000959   -0.000089
H     1.556541   -1.057551    0.120396    1.608163   -1.159460    0.140001
H    -1.851345    1.206896   -0.161571    0.004866   -0.000254    0.000163
H     2.391195    1.051118   -0.030879   -0.133348   -0.053332    0.000759
11
* Frequency(30) 3039.1579
C     1.354791    0.576073   -0.020090    0.008363   -0.001001    0.000310
C     1.215827   -0.833664    0.092608   -0.132734    0.106349   -0.012439
N     0.014082   -1.462951    0.112047   -0.003629   -0.002984    0.000147
C    -1.139457   -0.728309    0.019603    0.005364   -0.000186    0.000161
N    -0.987233    0.674428   -0.092665   -0.000299    0.000196   -0.000023
C     0.197844    1.422347   -0.121544    0.001843   -0.000823    0.000118
O    -2.277850   -1.194953    0.027553   -0.001442   -0.000421   -0.000003
O     0.157402    2.653644   -0.224855   -0.000385    0.000959   -0.000089
H     1.511056   -1.024757    0.116437    1.608163   -1.159460    0.140001
H    -1.851483    1.206903   -0.161575    0.004866   -0.000254    0.000163
H     2.394966    1.052627   -0.030901   -0.133348   -0.053332    0.000759
11
* Frequency(30) 3039.1579
C     1.354870    0.576064   -0.020087    0.008363   -0.001001    0.000310
C     1.214564   -0.832652    0.092490   -0.132734    0.106349   -0.012439
N     0.014047   -1.462980    0.112048   -0.003629   -0.002984    0.000147
C    -1.139406   -0.728311    0.019604    0.005364   -0.000186    0.000161
N    -0.987236    0.674430   -0.092665   -0.000299    0.000196   -0.000023
C     0.197861    1.422340   -0.121543    0.001843   -0.000823    0.000118
O    -2.277863   -1.194957    0.027553   -0.001442   -0.000421   -0.000003
O     0.157398    2.653653   -0.224855   -0.000385    0.000959   -0.000089
H     1.526357   -1.035789    0.117769    1.608163   -1.159460    0.140001
H    -1.851437    1.206901   -0.161574    0.004866   -0.000254    0.000163
H     2.393698    1.052119   -0.030894   -0.133348   -0.053332    0.000759
11
* Frequency(30) 3039.1579
C     1.355257    0.576018   -0.020072    0.008363   -0.001001    0.000310
C     1.208421   -0.827730    0.091914   -0.132734    0.106349   -0.012439
N     0.013879   -1.463118    0.112055   -0.003629   -0.002984    0.000147
C    -1.139158   -0.728320    0.019612    0.005364   -0.000186    0.000161
N    -0.987250    0.674439   -0.092666   -0.000299    0.000196   -0.000023
C     0.197947    1.422301   -0.121537    0.001843   -0.000823    0.000118
O    -2.277930   -1.194977    0.027553   -0.001442   -0.000421   -0.000003
O     0.157380    2.653697   -0.224859   -0.000385    0.000959   -0.000089
H     1.600785   -1.089450    0.124248    1.608163   -1.159460    0.140001
H    -1.851211    1.206889   -0.161566    0.004866   -0.000254    0.000163
H     2.387526    1.049651   -0.030859   -0.133348   -0.053332    0.000759
11
* Frequency(30) 3039.1579
C     1.355910    0.575939   -0.020048    0.008363   -0.001001    0.000310
C     1.198063   -0.819432    0.090943   -0.132734    0.106349   -0.012439
N     0.013596   -1.463351    0.112066   -0.003629   -0.002984    0.000147
C    -1.138739   -0.728334    0.019624    0.005364   -0.000186    0.000161
N    -0.987273    0.674454   -0.092668   -0.000299    0.000196   -0.000023
C     0.198090    1.422237   -0.121528    0.001843   -0.000823    0.000118
O    -2.278042   -1.195010    0.027552   -0.001442   -0.000421   -0.000003
O     0.157350    2.653772   -0.224866   -0.000385    0.000959   -0.000089
H     1.726276   -1.179928    0.135173    1.608163   -1.159460    0.140001
H    -1.850832    1.206869   -0.161554    0.004866   -0.000254    0.000163
H     2.377120    1.045489   -0.030799   -0.133348   -0.053332    0.000759
11
* Frequency(30) 3039.1579
C     1.356757    0.575838   -0.020017    0.008363   -0.001001    0.000310
C     1.184613   -0.808655    0.089683   -0.132734    0.106349   -0.012439
N     0.013228   -1.463653    0.112081   -0.003629   -0.002984    0.000147
C    -1.138195   -0.728353    0.019641    0.005364   -0.000186    0.000161
N    -0.987303    0.674474   -0.092670   -0.000299    0.000196   -0.000023
C     0.198277    1.422154   -0.121516    0.001843   -0.000823    0.000118
O    -2.278189   -1.195052    0.027552   -0.001442   -0.000421   -0.000003
O     0.157311    2.653869   -0.224875   -0.000385    0.000959   -0.000089
H     1.889231   -1.297415    0.149359    1.608163   -1.159460    0.140001
H    -1.850339    1.206843   -0.161537    0.004866   -0.000254    0.000163
H     2.363608    1.040085   -0.030722   -0.133348   -0.053332    0.000759
11
* Frequency(30) 3039.1579
C     1.357708    0.575724   -0.019982    0.008363   -0.001001    0.000310
C     1.169529   -0.796569    0.088269   -0.132734    0.106349   -0.012439
N     0.012816   -1.463992    0.112098   -0.003629   -0.002984    0.000147
C    -1.137586   -0.728374    0.019659    0.005364   -0.000186    0.000161
N    -0.987337    0.674496   -0.092673   -0.000299    0.000196   -0.000023
C     0.198487    1.422060   -0.121503    0.001843   -0.000823    0.000118
O    -2.278352   -1.195100    0.027552   -0.001442   -0.000421   -0.000003
O     0.157268    2.653978   -0.224886   -0.000385    0.000959   -0.000089
H     2.071990   -1.429182    0.165269    1.608163   -1.159460    0.140001
H    -1.849786    1.206815   -0.161518    0.004866   -0.000254    0.000163
H     2.348454    1.034025   -0.030636   -0.133348   -0.053332    0.000759
