11
* (null), Energy   -1000.0000000
C     1.591454    0.406609    0.009810    0.129307    0.175744   -0.010924
C     1.402862   -0.965542    0.118363    0.054855   -0.160440    0.014594
N     0.246024   -1.632751    0.142050   -0.190303   -0.113157    0.004224
C    -0.904486   -0.897558    0.049520   -0.016572    0.094897   -0.008376
N    -0.754011    0.505509   -0.063362    0.058282   -0.057932    0.006425
C     0.431975    1.252895   -0.092416   -0.033844   -0.002842   -0.000745
O    -2.045071   -1.364389    0.057523    0.055903   -0.018579    0.003069
O     0.390516    2.484935   -0.194533    0.016484    0.037310   -0.002589
H     2.305441   -1.598210    0.195810   -0.320123   -0.685986    0.049124
H    -1.616489    1.037825   -0.130328   -0.035446   -0.215647    0.017091
H     2.582079    0.864994   -0.000426   -0.552477    1.702491   -0.156843
11
* Frequency(21) 1081.8245
C     1.606149    0.426582    0.008569    0.129307    0.175744   -0.010924
C     1.409096   -0.983775    0.120022    0.054855   -0.160440    0.014594
N     0.224397   -1.645610    0.142530   -0.190303   -0.113157    0.004224
C    -0.906370   -0.886774    0.048568   -0.016572    0.094897   -0.008376
N    -0.747388    0.498925   -0.062632    0.058282   -0.057932    0.006425
C     0.428129    1.252572   -0.092501   -0.033844   -0.002842   -0.000745
O    -2.038718   -1.366500    0.057872    0.055903   -0.018579    0.003069
O     0.392389    2.489175   -0.194827    0.016484    0.037310   -0.002589
H     2.269061   -1.676169    0.201393   -0.320123   -0.685986    0.049124
H    -1.620517    1.013318   -0.128385   -0.035446   -0.215647    0.017091
H     2.519293    1.058473   -0.018250   -0.552477    1.702491   -0.156843
11
* Frequency(21) 1081.8245
C     1.619252    0.444390    0.007462    0.129307    0.175744   -0.010924
C     1.414654   -1.000032    0.121501    0.054855   -0.160440    0.014594
N     0.205114   -1.657076    0.142958   -0.190303   -0.113157    0.004224
C    -0.908049   -0.877158    0.047719   -0.016572    0.094897   -0.008376
N    -0.741482    0.493055   -0.061980    0.058282   -0.057932    0.006425
C     0.424699    1.252284   -0.092576   -0.033844   -0.002842   -0.000745
O    -2.033053   -1.368383    0.058183    0.055903   -0.018579    0.003069
O     0.394060    2.492956   -0.195090    0.016484    0.037310   -0.002589
H     2.236623   -1.745679    0.206370   -0.320123   -0.685986    0.049124
H    -1.624109    0.991466   -0.126654   -0.035446   -0.215647    0.017091
H     2.463311    1.230986   -0.034143   -0.552477    1.702491   -0.156843
11
* Frequency(21) 1081.8245
C     1.629342    0.458104    0.006610    0.129307    0.175744   -0.010924
C     1.418935   -1.012552    0.122639    0.054855   -0.160440    0.014594
N     0.190264   -1.665907    0.143287   -0.190303   -0.113157    0.004224
C    -0.909342   -0.869753    0.047065   -0.016572    0.094897   -0.008376
N    -0.736934    0.488535   -0.061479    0.058282   -0.057932    0.006425
C     0.422058    1.252062   -0.092634   -0.033844   -0.002842   -0.000745
O    -2.028691   -1.369833    0.058422    0.055903   -0.018579    0.003069
O     0.395346    2.495867   -0.195292    0.016484    0.037310   -0.002589
H     2.211642   -1.799209    0.210204   -0.320123   -0.685986    0.049124
H    -1.626875    0.974638   -0.125320   -0.035446   -0.215647    0.017091
H     2.420199    1.363837   -0.046382   -0.552477    1.702491   -0.156843
11
* Frequency(21) 1081.8245
C     1.635327    0.466237    0.006104    0.129307    0.175744   -0.010924
C     1.421474   -1.019977    0.123315    0.054855   -0.160440    0.014594
N     0.181456   -1.671144    0.143483   -0.190303   -0.113157    0.004224
C    -0.910109   -0.865361    0.046678   -0.016572    0.094897   -0.008376
N    -0.734237    0.485853   -0.061182    0.058282   -0.057932    0.006425
C     0.420492    1.251931   -0.092669   -0.033844   -0.002842   -0.000745
O    -2.026103   -1.370693    0.058564    0.055903   -0.018579    0.003069
O     0.396109    2.497594   -0.195412    0.016484    0.037310   -0.002589
H     2.196826   -1.830958    0.212477   -0.320123   -0.685986    0.049124
H    -1.628515    0.964658   -0.124529   -0.035446   -0.215647    0.017091
H     2.394629    1.442632   -0.053641   -0.552477    1.702491   -0.156843
11
* Frequency(21) 1081.8245
C     1.636557    0.467909    0.006000    0.129307    0.175744   -0.010924
C     1.421996   -1.021504    0.123454    0.054855   -0.160440    0.014594
N     0.179645   -1.672220    0.143523   -0.190303   -0.113157    0.004224
C    -0.910267   -0.864458    0.046598   -0.016572    0.094897   -0.008376
N    -0.733682    0.485302   -0.061121    0.058282   -0.057932    0.006425
C     0.420170    1.251904   -0.092676   -0.033844   -0.002842   -0.000745
O    -2.025571   -1.370869    0.058593    0.055903   -0.018579    0.003069
O     0.396266    2.497949   -0.195436    0.016484    0.037310   -0.002589
H     2.193781   -1.837485    0.212945   -0.320123   -0.685986    0.049124
H    -1.628853    0.962606   -0.124366   -0.035446   -0.215647    0.017091
H     2.389373    1.458830   -0.055134   -0.552477    1.702491   -0.156843
11
* Frequency(21) 1081.8245
C     1.632900    0.462939    0.006309    0.129307    0.175744   -0.010924
C     1.420444   -1.016966    0.123041    0.054855   -0.160440    0.014594
N     0.185028   -1.669020    0.143403   -0.190303   -0.113157    0.004224
C    -0.909798   -0.867142    0.046835   -0.016572    0.094897   -0.008376
N    -0.735331    0.486941   -0.061302    0.058282   -0.057932    0.006425
C     0.421127    1.251984   -0.092655   -0.033844   -0.002842   -0.000745
O    -2.027153   -1.370344    0.058507    0.055903   -0.018579    0.003069
O     0.395799    2.496894   -0.195363    0.016484    0.037310   -0.002589
H     2.202835   -1.818083    0.211555   -0.320123   -0.685986    0.049124
H    -1.627850    0.968705   -0.124850   -0.035446   -0.215647    0.017091
H     2.404999    1.410677   -0.050697   -0.552477    1.702491   -0.156843
11
* Frequency(21) 1081.8245
C     1.624751    0.451864    0.006998    0.129307    0.175744   -0.010924
C     1.416987   -1.006855    0.122121    0.054855   -0.160440    0.014594
N     0.197020   -1.661889    0.143137   -0.190303   -0.113157    0.004224
C    -0.908754   -0.873122    0.047363   -0.016572    0.094897   -0.008376
N    -0.739003    0.490591   -0.061707    0.058282   -0.057932    0.006425
C     0.423260    1.252163   -0.092608   -0.033844   -0.002842   -0.000745
O    -2.030676   -1.369173    0.058313    0.055903   -0.018579    0.003069
O     0.394761    2.494542   -0.195200    0.016484    0.037310   -0.002589
H     2.223008   -1.774854    0.208459   -0.320123   -0.685986    0.049124
H    -1.625616    0.982295   -0.125927   -0.035446   -0.215647    0.017091
H     2.439815    1.303391   -0.040814   -0.552477    1.702491   -0.156843
11
* Frequency(21) 1081.8245
C     1.612994    0.435885    0.007991    0.129307    0.175744   -0.010924
C     1.412000   -0.992268    0.120794    0.054855   -0.160440    0.014594
N     0.214323   -1.651600    0.142753   -0.190303   -0.113157    0.004224
C    -0.907247   -0.881750    0.048124   -0.016572    0.094897   -0.008376
N    -0.744303    0.495859   -0.062291    0.058282   -0.057932    0.006425
C     0.426337    1.252422   -0.092540   -0.033844   -0.002842   -0.000745
O    -2.035758   -1.367484    0.058034    0.055903   -0.018579    0.003069
O     0.393262    2.491150   -0.194964    0.016484    0.037310   -0.002589
H     2.252114   -1.712483    0.203993   -0.320123   -0.685986    0.049124
H    -1.622394    1.001902   -0.127481   -0.035446   -0.215647    0.017091
H     2.490047    1.148597   -0.026553   -0.552477    1.702491   -0.156843
11
* Frequency(21) 1081.8245
C     1.598903    0.416733    0.009181    0.129307    0.175744   -0.010924
C     1.406022   -0.974784    0.119204    0.054855   -0.160440    0.014594
N     0.235061   -1.639269    0.142293   -0.190303   -0.113157    0.004224
C    -0.905441   -0.892091    0.049037   -0.016572    0.094897   -0.008376
N    -0.750654    0.502172   -0.062992    0.058282   -0.057932    0.006425
C     0.430025    1.252731   -0.092459   -0.033844   -0.002842   -0.000745
O    -2.041850   -1.365459    0.057700    0.055903   -0.018579    0.003069
O     0.391466    2.487084   -0.194682    0.016484    0.037310   -0.002589
H     2.286999   -1.637728    0.198640   -0.320123   -0.685986    0.049124
H    -1.618531    1.025402   -0.129343   -0.035446   -0.215647    0.017091
H     2.550252    0.963071   -0.009461   -0.552477    1.702491   -0.156843
11
* Frequency(21) 1081.8245
C     1.584005    0.396485    0.010440    0.129307    0.175744   -0.010924
C     1.399702   -0.956299    0.117523    0.054855   -0.160440    0.014594
N     0.256987   -1.626232    0.141806   -0.190303   -0.113157    0.004224
C    -0.903532   -0.903025    0.050002   -0.016572    0.094897   -0.008376
N    -0.757369    0.508847   -0.063732    0.058282   -0.057932    0.006425
C     0.433925    1.253059   -0.092373   -0.033844   -0.002842   -0.000745
O    -2.048291   -1.363319    0.057346    0.055903   -0.018579    0.003069
O     0.389567    2.482785   -0.194384    0.016484    0.037310   -0.002589
H     2.323883   -1.558692    0.192980   -0.320123   -0.685986    0.049124
H    -1.614447    1.050248   -0.131312   -0.035446   -0.215647    0.017091
H     2.613906    0.766916    0.008610   -0.552477    1.702491   -0.156843
11
* Frequency(21) 1081.8245
C     1.569914    0.377334    0.011630    0.129307    0.175744   -0.010924
C     1.393724   -0.938815    0.115932    0.054855   -0.160440    0.014594
N     0.277725   -1.613901    0.141346   -0.190303   -0.113157    0.004224
C    -0.901726   -0.913366    0.050915   -0.016572    0.094897   -0.008376
N    -0.763720    0.515160   -0.064432    0.058282   -0.057932    0.006425
C     0.437613    1.253369   -0.092292   -0.033844   -0.002842   -0.000745
O    -2.054383   -1.361294    0.057012    0.055903   -0.018579    0.003069
O     0.387770    2.478720   -0.194102    0.016484    0.037310   -0.002589
H     2.358768   -1.483937    0.187627   -0.320123   -0.685986    0.049124
H    -1.610584    1.073748   -0.133175   -0.035446   -0.215647    0.017091
H     2.674112    0.581390    0.025701   -0.552477    1.702491   -0.156843
11
* Frequency(21) 1081.8245
C     1.558157    0.361355    0.012623    0.129307    0.175744   -0.010924
C     1.388737   -0.924228    0.114605    0.054855   -0.160440    0.014594
N     0.295027   -1.603612    0.140962   -0.190303   -0.113157    0.004224
C    -0.900219   -0.921995    0.051676   -0.016572    0.094897   -0.008376
N    -0.769019    0.520427   -0.065016    0.058282   -0.057932    0.006425
C     0.440690    1.253627   -0.092224   -0.033844   -0.002842   -0.000745
O    -2.059466   -1.359605    0.056733    0.055903   -0.018579    0.003069
O     0.386272    2.475327   -0.193866    0.016484    0.037310   -0.002589
H     2.387874   -1.421566    0.183160   -0.320123   -0.685986    0.049124
H    -1.607361    1.093355   -0.134729   -0.035446   -0.215647    0.017091
H     2.724344    0.426597    0.039962   -0.552477    1.702491   -0.156843
11
* Frequency(21) 1081.8245
C     1.550009    0.350280    0.013312    0.129307    0.175744   -0.010924
C     1.385280   -0.914118    0.113686    0.054855   -0.160440    0.014594
N     0.307020   -1.596481    0.140696   -0.190303   -0.113157    0.004224
C    -0.899175   -0.927975    0.052204   -0.016572    0.094897   -0.008376
N    -0.772692    0.524078   -0.065421    0.058282   -0.057932    0.006425
C     0.442823    1.253806   -0.092177   -0.033844   -0.002842   -0.000745
O    -2.062989   -1.358434    0.056539    0.055903   -0.018579    0.003069
O     0.385233    2.472976   -0.193703    0.016484    0.037310   -0.002589
H     2.408047   -1.378337    0.180065   -0.320123   -0.685986    0.049124
H    -1.605128    1.106944   -0.135806   -0.035446   -0.215647    0.017091
H     2.759160    0.319310    0.049846   -0.552477    1.702491   -0.156843
11
* Frequency(21) 1081.8245
C     1.546352    0.345309    0.013621    0.129307    0.175744   -0.010924
C     1.383728   -0.909580    0.113273    0.054855   -0.160440    0.014594
N     0.312402   -1.593281    0.140576   -0.190303   -0.113157    0.004224
C    -0.898706   -0.930659    0.052441   -0.016572    0.094897   -0.008376
N    -0.774340    0.525716   -0.065603    0.058282   -0.057932    0.006425
C     0.443780    1.253887   -0.092156   -0.033844   -0.002842   -0.000745
O    -2.064570   -1.357909    0.056453    0.055903   -0.018579    0.003069
O     0.384767    2.471921   -0.193630    0.016484    0.037310   -0.002589
H     2.417101   -1.358935    0.178675   -0.320123   -0.685986    0.049124
H    -1.604125    1.113044   -0.136289   -0.035446   -0.215647    0.017091
H     2.774786    0.271157    0.054282   -0.552477    1.702491   -0.156843
11
* Frequency(21) 1081.8245
C     1.547582    0.346981    0.013517    0.129307    0.175744   -0.010924
C     1.384250   -0.911106    0.113412    0.054855   -0.160440    0.014594
N     0.310592   -1.594358    0.140617   -0.190303   -0.113157    0.004224
C    -0.898864   -0.929756    0.052362   -0.016572    0.094897   -0.008376
N    -0.773786    0.525165   -0.065542    0.058282   -0.057932    0.006425
C     0.443458    1.253860   -0.092163   -0.033844   -0.002842   -0.000745
O    -2.064038   -1.358085    0.056482    0.055903   -0.018579    0.003069
O     0.384923    2.472276   -0.193655    0.016484    0.037310   -0.002589
H     2.414055   -1.365462    0.179143   -0.320123   -0.685986    0.049124
H    -1.604462    1.110992   -0.136127   -0.035446   -0.215647    0.017091
H     2.769529    0.287355    0.052789   -0.552477    1.702491   -0.156843
11
* Frequency(21) 1081.8245
C     1.553566    0.355115    0.013011    0.129307    0.175744   -0.010924
C     1.386789   -0.918532    0.114087    0.054855   -0.160440    0.014594
N     0.301784   -1.599595    0.140812   -0.190303   -0.113157    0.004224
C    -0.899631   -0.925364    0.051974   -0.016572    0.094897   -0.008376
N    -0.771088    0.522484   -0.065244    0.058282   -0.057932    0.006425
C     0.441892    1.253728   -0.092198   -0.033844   -0.002842   -0.000745
O    -2.061451   -1.358945    0.056624    0.055903   -0.018579    0.003069
O     0.385686    2.474003   -0.193774    0.016484    0.037310   -0.002589
H     2.399240   -1.397211    0.181416   -0.320123   -0.685986    0.049124
H    -1.606103    1.101011   -0.135336   -0.035446   -0.215647    0.017091
H     2.743960    0.366150    0.045530   -0.552477    1.702491   -0.156843
11
* Frequency(21) 1081.8245
C     1.563657    0.368829    0.012159    0.129307    0.175744   -0.010924
C     1.391070   -0.931051    0.115226    0.054855   -0.160440    0.014594
N     0.286934   -1.608425    0.141142   -0.190303   -0.113157    0.004224
C    -0.900924   -0.917959    0.051320   -0.016572    0.094897   -0.008376
N    -0.766540    0.517963   -0.064743    0.058282   -0.057932    0.006425
C     0.439251    1.253506   -0.092256   -0.033844   -0.002842   -0.000745
O    -2.057089   -1.360395    0.056863    0.055903   -0.018579    0.003069
O     0.386973    2.476914   -0.193976    0.016484    0.037310   -0.002589
H     2.374259   -1.450741    0.185250   -0.320123   -0.685986    0.049124
H    -1.608869    1.084184   -0.134002   -0.035446   -0.215647    0.017091
H     2.700848    0.499002    0.033291   -0.552477    1.702491   -0.156843
11
* Frequency(21) 1081.8245
C     1.576759    0.386637    0.011052    0.129307    0.175744   -0.010924
C     1.396628   -0.947309    0.116705    0.054855   -0.160440    0.014594
N     0.267651   -1.619891    0.141570   -0.190303   -0.113157    0.004224
C    -0.902603   -0.908343    0.050471   -0.016572    0.094897   -0.008376
N    -0.760635    0.512093   -0.064092    0.058282   -0.057932    0.006425
C     0.435821    1.253218   -0.092331   -0.033844   -0.002842   -0.000745
O    -2.051424   -1.362278    0.057174    0.055903   -0.018579    0.003069
O     0.388643    2.480695   -0.194239    0.016484    0.037310   -0.002589
H     2.341821   -1.520251    0.190227   -0.320123   -0.685986    0.049124
H    -1.612461    1.062332   -0.132270   -0.035446   -0.215647    0.017091
H     2.644865    0.671514    0.017398   -0.552477    1.702491   -0.156843
11
* Frequency(21) 1081.8245
C     1.591454    0.406609    0.009810    0.129307    0.175744   -0.010924
C     1.402862   -0.965542    0.118363    0.054855   -0.160440    0.014594
N     0.246024   -1.632751    0.142050   -0.190303   -0.113157    0.004224
C    -0.904486   -0.897558    0.049520   -0.016572    0.094897   -0.008376
N    -0.754011    0.505509   -0.063362    0.058282   -0.057932    0.006425
C     0.431975    1.252895   -0.092416   -0.033844   -0.002842   -0.000745
O    -2.045071   -1.364389    0.057523    0.055903   -0.018579    0.003069
O     0.390516    2.484935   -0.194533    0.016484    0.037310   -0.002589
H     2.305441   -1.598210    0.195810   -0.320123   -0.685986    0.049124
H    -1.616489    1.037825   -0.130328   -0.035446   -0.215647    0.017091
H     2.582079    0.864994   -0.000426   -0.552477    1.702491   -0.156843
