11
Coordinates from ORCA-job Uracil_m1 E -413.714866119861
  C       1.338780      0.515080     -0.017080
  C       1.245260     -0.812400      0.092680
  N      -0.024150     -1.419660      0.116200
  C      -1.172370     -0.617430      0.008880
  N      -1.056250      0.719790     -0.106360
  C       0.138810      1.364060     -0.117600
  O      -2.193050     -1.270750      0.037880
  O       0.235340      2.577570     -0.204660
  H       2.150690     -1.416360      0.164630
  H      -1.894310      1.283150     -0.175340
  H       2.294440      1.030830     -0.037580
11
Coordinates from ORCA-job Uracil_m1 E -413.740030664904
  C       1.345344      0.547286     -0.019218
  C       1.209285     -0.811867      0.091530
  N       0.004266     -1.453192      0.117406
  C      -1.153464     -0.678897      0.015743
  N      -1.022425      0.695229     -0.101462
  C       0.171631      1.393055     -0.118729
  O      -2.253258     -1.236015      0.032085
  O       0.210385      2.624567     -0.212277
  H       2.111096     -1.435575      0.165603
  H      -1.871277      1.250728     -0.170555
  H       2.311606      1.058562     -0.038476
11
Coordinates from ORCA-job Uracil_m1 E -413.745881162153
  C       1.351450      0.570047     -0.020767
  C       1.170945     -0.803313      0.088880
  N       0.017067     -1.462500      0.114329
  C      -1.131368     -0.719625      0.018908
  N      -0.991634      0.675113     -0.097415
  C       0.196187      1.413198     -0.121202
  O      -2.268856     -1.201220      0.030267
  O       0.174723      2.649212     -0.218620
  H       2.066334     -1.443910      0.166624
  H      -1.848841      1.216115     -0.164255
  H       2.327184      1.060763     -0.035100
11
Coordinates from ORCA-job Uracil_m1 E -413.746171297996
  C       1.358358      0.573435     -0.020217
  C       1.171385     -0.800252      0.088269
  N       0.013575     -1.463768      0.112159
  C      -1.136088     -0.725786      0.020453
  N      -0.989094      0.673050     -0.095283
  C       0.199425      1.416768     -0.120926
  O      -2.277475     -1.195537      0.028764
  O       0.163197      2.650736     -0.222698
  H       2.069280     -1.439950      0.166140
  H      -1.847930      1.211107     -0.162573
  H       2.338558      1.054078     -0.032437
11
Coordinates from ORCA-job Uracil_m1 E -413.746235973182
  C       1.360469      0.574704     -0.020233
  C       1.170767     -0.797894      0.088214
  N       0.012348     -1.463752      0.111391
  C      -1.138147     -0.728761      0.018041
  N      -0.987569      0.673146     -0.095121
  C       0.200082      1.419682     -0.122641
  O      -2.279925     -1.194276      0.030574
  O       0.157227      2.652079     -0.222920
  H       2.070445     -1.434512      0.166264
  H      -1.848127      1.208708     -0.161446
  H       2.345620      1.044757     -0.030471
11
Coordinates from ORCA-job Uracil_m1 E -413.746248546434
  C       1.359826      0.575225     -0.019492
  C       1.169997     -0.796694      0.087907
  N       0.012232     -1.463677      0.111483
  C      -1.138643     -0.729048      0.022255
  N      -0.987059      0.674001     -0.092675
  C       0.199502      1.421633     -0.120985
  O      -2.279517     -1.195047      0.026467
  O       0.155806      2.652917     -0.226077
  H       2.071246     -1.430855      0.164545
  H      -1.848691      1.207606     -0.161687
  H       2.348492      1.037819     -0.030093
11
Coordinates from ORCA-job Uracil_m1 E -413.746257291274
  C       1.358624      0.575330     -0.019851
  C       1.169613     -0.796476      0.088157
  N       0.012509     -1.463770      0.111897
  C      -1.138179     -0.728908      0.019708
  N      -0.987101      0.674365     -0.093194
  C       0.198902      1.422049     -0.121605
  O      -2.278762     -1.195332      0.028097
  O       0.156498      2.653580     -0.224870
  H       2.071669     -1.429543      0.165094
  H      -1.849188      1.207352     -0.161549
  H       2.348605      1.035234     -0.030235
11
Coordinates from ORCA-job Uracil_m1 E -413.746258809937
  C       1.357964      0.575509     -0.020017
  C       1.169535     -0.796563      0.088105
  N       0.012731     -1.463944      0.111720
  C      -1.137790     -0.728560      0.019718
  N      -0.987249      0.674454     -0.093079
  C       0.198629      1.421979     -0.122342
  O      -2.278432     -1.195248      0.028123
  O       0.157112      2.653859     -0.224501
  H       2.071865     -1.429306      0.165430
  H      -1.849536      1.207123     -0.161374
  H       2.348360      1.034579     -0.030132
11
Coordinates from ORCA-job Uracil_m1 E -413.746259264889
  C       1.357708      0.575724     -0.019982
  C       1.169529     -0.796569      0.088269
  N       0.012816     -1.463992      0.112098
  C      -1.137586     -0.728374      0.019659
  N      -0.987337      0.674496     -0.092673
  C       0.198487      1.422060     -0.121503
  O      -2.278352     -1.195100      0.027552
  O       0.157268      2.653978     -0.224886
  H       2.071990     -1.429182      0.165269
  H      -1.849786      1.206815     -0.161518
  H       2.348454      1.034025     -0.030636
