11
* (null), Energy   -1000.0000000
C     1.357708    0.575724   -0.019982   -0.007113    0.027973    0.368468
C     1.169529   -0.796569    0.088269    0.003309    0.006698    0.133835
N     0.012816   -1.463992    0.112098    0.008341   -0.017451   -0.210896
C    -1.137586   -0.728374    0.019659   -0.015002    0.037512    0.472008
N    -0.987337    0.674496   -0.092673   -0.004897    0.006361    0.055972
C     0.198487    1.422060   -0.121503    0.019910   -0.058411   -0.735611
O    -2.278352   -1.195100    0.027552   -0.001002   -0.010734   -0.123082
O     0.157268    2.653978   -0.224886   -0.007229    0.022998    0.230821
H     2.071990   -1.429182    0.165269    0.016167   -0.038874   -0.388257
H    -1.849786    1.206815   -0.161518    0.006820   -0.032167   -0.390712
H     2.348454    1.034025   -0.030636    0.046631   -0.133604   -1.622536
11
* Frequency(15)  796.9523
C     1.356899    0.578903    0.021893   -0.007113    0.027973    0.368468
C     1.169905   -0.795808    0.103479    0.003309    0.006698    0.133835
N     0.013764   -1.465976    0.088131    0.008341   -0.017451   -0.210896
C    -1.139291   -0.724111    0.073300   -0.015002    0.037512    0.472008
N    -0.987894    0.675219   -0.086312   -0.004897    0.006361    0.055972
C     0.200749    1.415422   -0.205101    0.019910   -0.058411   -0.735611
O    -2.278466   -1.196320    0.013564   -0.001002   -0.010734   -0.123082
O     0.156446    2.656592   -0.198654   -0.007229    0.022998    0.230821
H     2.073828   -1.433600    0.121146    0.016167   -0.038874   -0.388257
H    -1.849011    1.203159   -0.205921    0.006820   -0.032167   -0.390712
H     2.353753    1.018841   -0.215029    0.046631   -0.133604   -1.622536
11
* Frequency(15)  796.9523
C     1.356179    0.581738    0.059230   -0.007113    0.027973    0.368468
C     1.170240   -0.795130    0.117040    0.003309    0.006698    0.133835
N     0.014609   -1.467744    0.066761    0.008341   -0.017451   -0.210896
C    -1.140811   -0.720310    0.121128   -0.015002    0.037512    0.472008
N    -0.988390    0.675864   -0.080640   -0.004897    0.006361    0.055972
C     0.202767    1.409503   -0.279640    0.019910   -0.058411   -0.735611
O    -2.278568   -1.197408    0.001092   -0.001002   -0.010734   -0.123082
O     0.155714    2.658922   -0.175265   -0.007229    0.022998    0.230821
H     2.075466   -1.437539    0.081804    0.016167   -0.038874   -0.388257
H    -1.848319    1.199899   -0.245511    0.006820   -0.032167   -0.390712
H     2.358479    1.005303   -0.379440    0.046631   -0.133604   -1.622536
11
* Frequency(15)  796.9523
C     1.355624    0.583921    0.087982   -0.007113    0.027973    0.368468
C     1.170498   -0.794607    0.127484    0.003309    0.006698    0.133835
N     0.015260   -1.469106    0.050304    0.008341   -0.017451   -0.210896
C    -1.141982   -0.717383    0.157961   -0.015002    0.037512    0.472008
N    -0.988772    0.676360   -0.076272   -0.004897    0.006361    0.055972
C     0.204320    1.404945   -0.337043    0.019910   -0.058411   -0.735611
O    -2.278646   -1.198245   -0.008512   -0.001002   -0.010734   -0.123082
O     0.155150    2.660717   -0.157253   -0.007229    0.022998    0.230821
H     2.076728   -1.440572    0.051507    0.016167   -0.038874   -0.388257
H    -1.847787    1.197389   -0.276000    0.006820   -0.032167   -0.390712
H     2.362117    0.994878   -0.506053    0.046631   -0.133604   -1.622536
11
* Frequency(15)  796.9523
C     1.355295    0.585215    0.105036   -0.007113    0.027973    0.368468
C     1.170652   -0.794297    0.133678    0.003309    0.006698    0.133835
N     0.015646   -1.469913    0.040543    0.008341   -0.017451   -0.210896
C    -1.142676   -0.715647    0.179806   -0.015002    0.037512    0.472008
N    -0.988999    0.676654   -0.073682   -0.004897    0.006361    0.055972
C     0.205242    1.402242   -0.371088    0.019910   -0.058411   -0.735611
O    -2.278693   -1.198742   -0.014209   -0.001002   -0.010734   -0.123082
O     0.154815    2.661781   -0.146570   -0.007229    0.022998    0.230821
H     2.077476   -1.442372    0.033538    0.016167   -0.038874   -0.388257
H    -1.847472    1.195900   -0.294083    0.006820   -0.032167   -0.390712
H     2.364275    0.988694   -0.581147    0.046631   -0.133604   -1.622536
11
* Frequency(15)  796.9523
C     1.355227    0.585481    0.108542   -0.007113    0.027973    0.368468
C     1.170683   -0.794233    0.134951    0.003309    0.006698    0.133835
N     0.015726   -1.470079    0.038536    0.008341   -0.017451   -0.210896
C    -1.142819   -0.715290    0.184297   -0.015002    0.037512    0.472008
N    -0.989045    0.676715   -0.073149   -0.004897    0.006361    0.055972
C     0.205431    1.401686   -0.378087    0.019910   -0.058411   -0.735611
O    -2.278702   -1.198844   -0.015380   -0.001002   -0.010734   -0.123082
O     0.154746    2.662000   -0.144374   -0.007229    0.022998    0.230821
H     2.077630   -1.442741    0.029844    0.016167   -0.038874   -0.388257
H    -1.847407    1.195594   -0.297800    0.006820   -0.032167   -0.390712
H     2.364719    0.987423   -0.596584    0.046631   -0.133604   -1.622536
11
* Frequency(15)  796.9523
C     1.355428    0.584690    0.098120   -0.007113    0.027973    0.368468
C     1.170589   -0.794423    0.131166    0.003309    0.006698    0.133835
N     0.015490   -1.469586    0.044501    0.008341   -0.017451   -0.210896
C    -1.142394   -0.716351    0.170947   -0.015002    0.037512    0.472008
N    -0.988907    0.676535   -0.074733   -0.004897    0.006361    0.055972
C     0.204868    1.403338   -0.357281    0.019910   -0.058411   -0.735611
O    -2.278674   -1.198541   -0.011898   -0.001002   -0.010734   -0.123082
O     0.154951    2.661349   -0.150903   -0.007229    0.022998    0.230821
H     2.077172   -1.441642    0.040825    0.016167   -0.038874   -0.388257
H    -1.847600    1.196504   -0.286750    0.006820   -0.032167   -0.390712
H     2.363400    0.991202   -0.550692    0.046631   -0.133604   -1.622536
11
* Frequency(15)  796.9523
C     1.355876    0.582927    0.074900   -0.007113    0.027973    0.368468
C     1.170381   -0.794845    0.122732    0.003309    0.006698    0.133835
N     0.014964   -1.468486    0.057792    0.008341   -0.017451   -0.210896
C    -1.141449   -0.718715    0.141202   -0.015002    0.037512    0.472008
N    -0.988598    0.676134   -0.078260   -0.004897    0.006361    0.055972
C     0.203613    1.407019   -0.310925    0.019910   -0.058411   -0.735611
O    -2.278611   -1.197864   -0.004142   -0.001002   -0.010734   -0.123082
O     0.155406    2.659900   -0.165448   -0.007229    0.022998    0.230821
H     2.076154   -1.439192    0.065292    0.016167   -0.038874   -0.388257
H    -1.848029    1.198531   -0.262128    0.006820   -0.032167   -0.390712
H     2.360462    0.999621   -0.448445    0.046631   -0.133604   -1.622536
11
* Frequency(15)  796.9523
C     1.356523    0.580384    0.041398   -0.007113    0.027973    0.368468
C     1.170080   -0.795454    0.110564    0.003309    0.006698    0.133835
N     0.014206   -1.466899    0.076967    0.008341   -0.017451   -0.210896
C    -1.140085   -0.722125    0.098287   -0.015002    0.037512    0.472008
N    -0.988153    0.675556   -0.083349   -0.004897    0.006361    0.055972
C     0.201803    1.412330   -0.244042    0.019910   -0.058411   -0.735611
O    -2.278519   -1.196888    0.007049   -0.001002   -0.010734   -0.123082
O     0.156063    2.657809   -0.186435   -0.007229    0.022998    0.230821
H     2.074684   -1.435658    0.100593    0.016167   -0.038874   -0.388257
H    -1.848649    1.201456   -0.226604    0.006820   -0.032167   -0.390712
H     2.356222    1.011769   -0.300921    0.046631   -0.133604   -1.622536
11
* Frequency(15)  796.9523
C     1.357298    0.577336    0.001245   -0.007113    0.027973    0.368468
C     1.169719   -0.796184    0.095979    0.003309    0.006698    0.133835
N     0.013297   -1.464998    0.099949    0.008341   -0.017451   -0.210896
C    -1.138450   -0.726213    0.046850   -0.015002    0.037512    0.472008
N    -0.987619    0.674863   -0.089448   -0.004897    0.006361    0.055972
C     0.199634    1.418695   -0.163880    0.019910   -0.058411   -0.735611
O    -2.278410   -1.195719    0.020461   -0.001002   -0.010734   -0.123082
O     0.156851    2.655303   -0.211588   -0.007229    0.022998    0.230821
H     2.072922   -1.431421    0.142903    0.016167   -0.038874   -0.388257
H    -1.849393    1.204961   -0.184027    0.006820   -0.032167   -0.390712
H     2.351140    1.026328   -0.124107    0.046631   -0.133604   -1.622536
11
* Frequency(15)  796.9523
C     1.358117    0.574113   -0.041208   -0.007113    0.027973    0.368468
C     1.169338   -0.796955    0.080559    0.003309    0.006698    0.133835
N     0.012336   -1.462987    0.124247    0.008341   -0.017451   -0.210896
C    -1.136722   -0.730535   -0.007533   -0.015002    0.037512    0.472008
N    -0.987055    0.674130   -0.095897   -0.004897    0.006361    0.055972
C     0.197340    1.425425   -0.079126    0.019910   -0.058411   -0.735611
O    -2.278295   -1.194482    0.034642   -0.001002   -0.010734   -0.123082
O     0.157684    2.652653   -0.238183   -0.007229    0.022998    0.230821
H     2.071059   -1.426942    0.187636    0.016167   -0.038874   -0.388257
H    -1.850178    1.208668   -0.139010    0.006820   -0.032167   -0.390712
H     2.345768    1.041721    0.062835    0.046631   -0.133604   -1.622536
11
* Frequency(15)  796.9523
C     1.358893    0.571064   -0.081362   -0.007113    0.027973    0.368468
C     1.168978   -0.797685    0.065975    0.003309    0.006698    0.133835
N     0.011427   -1.461085    0.147229    0.008341   -0.017451   -0.210896
C    -1.135087   -0.734623   -0.058969   -0.015002    0.037512    0.472008
N    -0.986522    0.673437   -0.101997   -0.004897    0.006361    0.055972
C     0.195170    1.431791    0.001037    0.019910   -0.058411   -0.735611
O    -2.278185   -1.193312    0.048055   -0.001002   -0.010734   -0.123082
O     0.158472    2.650147   -0.263336   -0.007229    0.022998    0.230821
H     2.069297   -1.422706    0.229946    0.016167   -0.038874   -0.388257
H    -1.850922    1.212173   -0.096433    0.006820   -0.032167   -0.390712
H     2.340686    1.056280    0.239649    0.046631   -0.133604   -1.622536
11
* Frequency(15)  796.9523
C     1.359539    0.568521   -0.114863   -0.007113    0.027973    0.368468
C     1.168677   -0.798294    0.053806    0.003309    0.006698    0.133835
N     0.010668   -1.459499    0.166404    0.008341   -0.017451   -0.210896
C    -1.133723   -0.738034   -0.101885   -0.015002    0.037512    0.472008
N    -0.986076    0.672858   -0.107086   -0.004897    0.006361    0.055972
C     0.193360    1.437101    0.067920    0.019910   -0.058411   -0.735611
O    -2.278094   -1.192336    0.059246   -0.001002   -0.010734   -0.123082
O     0.159129    2.648056   -0.284323   -0.007229    0.022998    0.230821
H     2.067827   -1.419172    0.265247    0.016167   -0.038874   -0.388257
H    -1.851542    1.215098   -0.060909    0.006820   -0.032167   -0.390712
H     2.336446    1.068428    0.387172    0.046631   -0.133604   -1.622536
11
* Frequency(15)  796.9523
C     1.359987    0.566758   -0.138083   -0.007113    0.027973    0.368468
C     1.168468   -0.798716    0.045372    0.003309    0.006698    0.133835
N     0.010143   -1.458399    0.179694    0.008341   -0.017451   -0.210896
C    -1.132778   -0.740397   -0.131629   -0.015002    0.037512    0.472008
N    -0.985768    0.672458   -0.110613   -0.004897    0.006361    0.055972
C     0.192105    1.440782    0.114276    0.019910   -0.058411   -0.735611
O    -2.278031   -1.191660    0.067002   -0.001002   -0.010734   -0.123082
O     0.159585    2.646607   -0.298869   -0.007229    0.022998    0.230821
H     2.066809   -1.416722    0.289714    0.016167   -0.038874   -0.388257
H    -1.851972    1.217125   -0.036287    0.006820   -0.032167   -0.390712
H     2.333508    1.076847    0.489420    0.046631   -0.133604   -1.622536
11
* Frequency(15)  796.9523
C     1.360189    0.565967   -0.148505   -0.007113    0.027973    0.368468
C     1.168375   -0.798906    0.041587    0.003309    0.006698    0.133835
N     0.009907   -1.457906    0.185659    0.008341   -0.017451   -0.210896
C    -1.132353   -0.741458   -0.144980   -0.015002    0.037512    0.472008
N    -0.985629    0.672278   -0.112196   -0.004897    0.006361    0.055972
C     0.191542    1.442435    0.135082    0.019910   -0.058411   -0.735611
O    -2.278003   -1.191356    0.070483   -0.001002   -0.010734   -0.123082
O     0.159789    2.645956   -0.305397   -0.007229    0.022998    0.230821
H     2.066351   -1.415622    0.300695    0.016167   -0.038874   -0.388257
H    -1.852164    1.218035   -0.025236    0.006820   -0.032167   -0.390712
H     2.332189    1.080626    0.535312    0.046631   -0.133604   -1.622536
11
* Frequency(15)  796.9523
C     1.360121    0.566233   -0.144999   -0.007113    0.027973    0.368468
C     1.168406   -0.798842    0.042860    0.003309    0.006698    0.133835
N     0.009986   -1.458072    0.183653    0.008341   -0.017451   -0.210896
C    -1.132496   -0.741101   -0.140489   -0.015002    0.037512    0.472008
N    -0.985676    0.672338   -0.111664   -0.004897    0.006361    0.055972
C     0.191731    1.441879    0.128083    0.019910   -0.058411   -0.735611
O    -2.278012   -1.191458    0.069312   -0.001002   -0.010734   -0.123082
O     0.159720    2.646175   -0.303201   -0.007229    0.022998    0.230821
H     2.066505   -1.415992    0.297001    0.016167   -0.038874   -0.388257
H    -1.852100    1.217729   -0.028954    0.006820   -0.032167   -0.390712
H     2.332632    1.079355    0.519874    0.046631   -0.133604   -1.622536
11
* Frequency(15)  796.9523
C     1.359792    0.567528   -0.127946   -0.007113    0.027973    0.368468
C     1.168559   -0.798532    0.049054    0.003309    0.006698    0.133835
N     0.010372   -1.458879    0.173892    0.008341   -0.017451   -0.210896
C    -1.133190   -0.739365   -0.118643   -0.015002    0.037512    0.472008
N    -0.985902    0.672633   -0.109073   -0.004897    0.006361    0.055972
C     0.192653    1.439175    0.094037    0.019910   -0.058411   -0.735611
O    -2.278059   -1.191955    0.063616   -0.001002   -0.010734   -0.123082
O     0.159386    2.647239   -0.292518   -0.007229    0.022998    0.230821
H     2.067253   -1.417791    0.279032    0.016167   -0.038874   -0.388257
H    -1.851784    1.216240   -0.047037    0.006820   -0.032167   -0.390712
H     2.334791    1.073172    0.444780    0.046631   -0.133604   -1.622536
11
* Frequency(15)  796.9523
C     1.359237    0.569711   -0.099193   -0.007113    0.027973    0.368468
C     1.168817   -0.798009    0.059498    0.003309    0.006698    0.133835
N     0.011023   -1.460241    0.157435    0.008341   -0.017451   -0.210896
C    -1.134361   -0.736438   -0.081811   -0.015002    0.037512    0.472008
N    -0.986285    0.673129   -0.104705   -0.004897    0.006361    0.055972
C     0.194206    1.434617    0.036635    0.019910   -0.058411   -0.735611
O    -2.278137   -1.192793    0.054011   -0.001002   -0.010734   -0.123082
O     0.158822    2.649034   -0.274506   -0.007229    0.022998    0.230821
H     2.068515   -1.420825    0.248735    0.016167   -0.038874   -0.388257
H    -1.851252    1.213730   -0.077525    0.006820   -0.032167   -0.390712
H     2.338429    1.062746    0.318168    0.046631   -0.133604   -1.622536
11
* Frequency(15)  796.9523
C     1.358516    0.572545   -0.061856   -0.007113    0.027973    0.368468
C     1.169153   -0.797331    0.073059    0.003309    0.006698    0.133835
N     0.011868   -1.462009    0.136065    0.008341   -0.017451   -0.210896
C    -1.135881   -0.732637   -0.033982   -0.015002    0.037512    0.472008
N    -0.986781    0.673773   -0.099034   -0.004897    0.006361    0.055972
C     0.196224    1.428699   -0.037904    0.019910   -0.058411   -0.735611
O    -2.278238   -1.193880    0.041539   -0.001002   -0.010734   -0.123082
O     0.158089    2.651364   -0.251117   -0.007229    0.022998    0.230821
H     2.070153   -1.424764    0.209393    0.016167   -0.038874   -0.388257
H    -1.850561    1.210470   -0.117116    0.006820   -0.032167   -0.390712
H     2.343155    1.049208    0.153757    0.046631   -0.133604   -1.622536
11
* Frequency(15)  796.9523
C     1.357708    0.575724   -0.019982   -0.007113    0.027973    0.368468
C     1.169529   -0.796569    0.088269    0.003309    0.006698    0.133835
N     0.012816   -1.463992    0.112098    0.008341   -0.017451   -0.210896
C    -1.137586   -0.728374    0.019659   -0.015002    0.037512    0.472008
N    -0.987337    0.674496   -0.092673   -0.004897    0.006361    0.055972
C     0.198487    1.422060   -0.121503    0.019910   -0.058411   -0.735611
O    -2.278352   -1.195100    0.027552   -0.001002   -0.010734   -0.123082
O     0.157268    2.653978   -0.224886   -0.007229    0.022998    0.230821
H     2.071990   -1.429182    0.165269    0.016167   -0.038874   -0.388257
H    -1.849786    1.206815   -0.161518    0.006820   -0.032167   -0.390712
H     2.348454    1.034025   -0.030636    0.046631   -0.133604   -1.622536
