11
Coordinates from ORCA-job Uracil_m1 E -413.746667228330
  C           1.35808121364008      0.57566039440897     -0.02022238023505
  C           1.16948886226922     -0.79649059761630      0.08833044485009
  N           0.01265074148265     -1.46369942812741      0.11201680765165
  C          -1.13785962287654     -0.72850713459106      0.01948671141169
  N          -0.98738431648883      0.67456033510825     -0.09339463417280
  C           0.19860200948325      1.42194638194196     -0.12244884756313
  O          -2.27844390730842     -1.19533782245675      0.02749012358294
  O           0.15714296612527      2.65398597907243     -0.22456594937036
  H           2.07206786246898     -1.42915884233536      0.16577712415435
  H          -1.84986198893143      1.20687598473129     -0.16036059591569
  H           2.34870618013578      1.03404474986398     -0.03045880439369
