11
* (null), Energy   -1000.0000000
C     1.357708    0.575724   -0.019982    0.657751    0.097286    0.009454
C     1.169529   -0.796569    0.088269    0.268450    0.216196   -0.009664
N     0.012816   -1.463992    0.112098   -0.068444    0.867149   -0.074384
C    -1.137586   -0.728374    0.019659   -0.406381    0.314638   -0.038040
N    -0.987337    0.674496   -0.092673   -0.144227    0.010700   -0.004684
C     0.198487    1.422060   -0.121503    0.240515   -0.536100    0.050795
O    -2.278352   -1.195100    0.027552   -0.221539   -0.270298    0.016975
O     0.157268    2.653978   -0.224886   -0.212701   -0.629117    0.046263
H     2.071990   -1.429182    0.165269   -0.100689   -0.327701    0.027264
H    -1.849786    1.206815   -0.161518    0.392760    0.876327   -0.061292
H     2.348454    1.034025   -0.030636    0.495525    0.431961   -0.020447
11
* Frequency(10)  523.6003
C     1.432458    0.586780   -0.018907    0.657751    0.097286    0.009454
C     1.200037   -0.772000    0.087171    0.268450    0.216196   -0.009664
N     0.005038   -1.365445    0.103645   -0.068444    0.867149   -0.074384
C    -1.183769   -0.692617    0.015336   -0.406381    0.314638   -0.038040
N    -1.003728    0.675712   -0.093205   -0.144227    0.010700   -0.004684
C     0.225820    1.361135   -0.115730    0.240515   -0.536100    0.050795
O    -2.303529   -1.225818    0.029481   -0.221539   -0.270298    0.016975
O     0.133095    2.582482   -0.219628   -0.212701   -0.629117    0.046263
H     2.060548   -1.466423    0.168368   -0.100689   -0.327701    0.027264
H    -1.805150    1.306405   -0.168484    0.392760    0.876327   -0.061292
H     2.404768    1.083115   -0.032960    0.495525    0.431961   -0.020447
11
* Frequency(10)  523.6003
C     1.499107    0.596638   -0.017949    0.657751    0.097286    0.009454
C     1.227239   -0.750093    0.086192    0.268450    0.216196   -0.009664
N    -0.001898   -1.277577    0.096107   -0.068444    0.867149   -0.074384
C    -1.224947   -0.660735    0.011481   -0.406381    0.314638   -0.038040
N    -1.018342    0.676796   -0.093680   -0.144227    0.010700   -0.004684
C     0.250191    1.306813   -0.110583    0.240515   -0.536100    0.050795
O    -2.325978   -1.253207    0.031201   -0.221539   -0.270298    0.016975
O     0.111542    2.518734   -0.214940   -0.212701   -0.629117    0.046263
H     2.050345   -1.499629    0.171131   -0.100689   -0.327701    0.027264
H    -1.765352    1.395202   -0.174695    0.392760    0.876327   -0.061292
H     2.454979    1.126885   -0.035032    0.495525    0.431961   -0.020447
11
* Frequency(10)  523.6003
C     1.550434    0.604230   -0.017212    0.657751    0.097286    0.009454
C     1.248187   -0.733222    0.085437    0.268450    0.216196   -0.009664
N    -0.007239   -1.209910    0.090303   -0.068444    0.867149   -0.074384
C    -1.256659   -0.636183    0.008513   -0.406381    0.314638   -0.038040
N    -1.029597    0.677631   -0.094045   -0.144227    0.010700   -0.004684
C     0.268959    1.264979   -0.106619    0.240515   -0.536100    0.050795
O    -2.343265   -1.274300    0.032526   -0.221539   -0.270298    0.016975
O     0.094945    2.469642   -0.211330   -0.212701   -0.629117    0.046263
H     2.042488   -1.525201    0.173258   -0.100689   -0.327701    0.027264
H    -1.734704    1.463586   -0.179478    0.392760    0.876327   -0.061292
H     2.493647    1.160593   -0.036627    0.495525    0.431961   -0.020447
11
* Frequency(10)  523.6003
C     1.580876    0.608733   -0.016774    0.657751    0.097286    0.009454
C     1.260611   -0.723216    0.084990    0.268450    0.216196   -0.009664
N    -0.010406   -1.169777    0.086860   -0.068444    0.867149   -0.074384
C    -1.275467   -0.621620    0.006752   -0.406381    0.314638   -0.038040
N    -1.036272    0.678127   -0.094262   -0.144227    0.010700   -0.004684
C     0.280091    1.240167   -0.104269    0.240515   -0.536100    0.050795
O    -2.353518   -1.286810    0.033311   -0.221539   -0.270298    0.016975
O     0.085100    2.440525   -0.209189   -0.212701   -0.629117    0.046263
H     2.037828   -1.540367    0.174520   -0.100689   -0.327701    0.027264
H    -1.716526    1.504144   -0.182314    0.392760    0.876327   -0.061292
H     2.516581    1.180585   -0.037573    0.495525    0.431961   -0.020447
11
* Frequency(10)  523.6003
C     1.587134    0.609658   -0.016684    0.657751    0.097286    0.009454
C     1.263165   -0.721159    0.084898    0.268450    0.216196   -0.009664
N    -0.011058   -1.161527    0.086152   -0.068444    0.867149   -0.074384
C    -1.279333   -0.618627    0.006390   -0.406381    0.314638   -0.038040
N    -1.037644    0.678228   -0.094307   -0.144227    0.010700   -0.004684
C     0.282379    1.235066   -0.103785    0.240515   -0.536100    0.050795
O    -2.355626   -1.289381    0.033473   -0.221539   -0.270298    0.016975
O     0.083077    2.434539   -0.208749   -0.212701   -0.629117    0.046263
H     2.036870   -1.543485    0.174779   -0.100689   -0.327701    0.027264
H    -1.712789    1.512481   -0.182898    0.392760    0.876327   -0.061292
H     2.521296    1.184694   -0.037768    0.495525    0.431961   -0.020447
11
* Frequency(10)  523.6003
C     1.568531    0.606907   -0.016952    0.657751    0.097286    0.009454
C     1.255573   -0.727274    0.085172    0.268450    0.216196   -0.009664
N    -0.009122   -1.186053    0.088256   -0.068444    0.867149   -0.074384
C    -1.267839   -0.627526    0.007466   -0.406381    0.314638   -0.038040
N    -1.033565    0.677926   -0.094174   -0.144227    0.010700   -0.004684
C     0.275576    1.250229   -0.105222    0.240515   -0.536100    0.050795
O    -2.349360   -1.281736    0.032993   -0.221539   -0.270298    0.016975
O     0.089093    2.452333   -0.210057   -0.212701   -0.629117    0.046263
H     2.039718   -1.534217    0.174008   -0.100689   -0.327701    0.027264
H    -1.723898    1.487695   -0.181164    0.392760    0.876327   -0.061292
H     2.507280    1.172477   -0.037190    0.495525    0.431961   -0.020447
11
* Frequency(10)  523.6003
C     1.527081    0.600776   -0.017547    0.657751    0.097286    0.009454
C     1.238656   -0.740898    0.085781    0.268450    0.216196   -0.009664
N    -0.004809   -1.240698    0.092944   -0.068444    0.867149   -0.074384
C    -1.242230   -0.647354    0.009863   -0.406381    0.314638   -0.038040
N    -1.024476    0.677252   -0.093879   -0.144227    0.010700   -0.004684
C     0.260420    1.284013   -0.108423    0.240515   -0.536100    0.050795
O    -2.335399   -1.264703    0.031923   -0.221539   -0.270298    0.016975
O     0.102496    2.491978   -0.212973   -0.212701   -0.629117    0.046263
H     2.046063   -1.513566    0.172290   -0.100689   -0.327701    0.027264
H    -1.748649    1.432472   -0.177301    0.392760    0.876327   -0.061292
H     2.476053    1.145256   -0.035901    0.495525    0.431961   -0.020447
11
* Frequency(10)  523.6003
C     1.467277    0.591930   -0.018407    0.657751    0.097286    0.009454
C     1.214248   -0.760555    0.086659    0.268450    0.216196   -0.009664
N     0.001414   -1.319541    0.099707   -0.068444    0.867149   -0.074384
C    -1.205281   -0.675961    0.013322   -0.406381    0.314638   -0.038040
N    -1.011363    0.676279   -0.093453   -0.144227    0.010700   -0.004684
C     0.238552    1.332756   -0.113041    0.240515   -0.536100    0.050795
O    -2.315257   -1.240127    0.030380   -0.221539   -0.270298    0.016975
O     0.121836    2.549179   -0.217179   -0.212701   -0.629117    0.046263
H     2.055218   -1.483771    0.169811   -0.100689   -0.327701    0.027264
H    -1.784359    1.352794   -0.171729    0.392760    0.876327   -0.061292
H     2.430999    1.105981   -0.034042    0.495525    0.431961   -0.020447
11
* Frequency(10)  523.6003
C     1.395600    0.581329   -0.019437    0.657751    0.097286    0.009454
C     1.184994   -0.784115    0.087712    0.268450    0.216196   -0.009664
N     0.008873   -1.414038    0.107813   -0.068444    0.867149   -0.074384
C    -1.160997   -0.710248    0.017467   -0.406381    0.314638   -0.038040
N    -0.995646    0.675113   -0.092943   -0.144227    0.010700   -0.004684
C     0.212342    1.391177   -0.118577    0.240515   -0.536100    0.050795
O    -2.291115   -1.210672    0.028530   -0.221539   -0.270298    0.016975
O     0.145014    2.617736   -0.222220   -0.212701   -0.629117    0.046263
H     2.066190   -1.448060    0.166840   -0.100689   -0.327701    0.027264
H    -1.827159    1.257298   -0.165049    0.392760    0.876327   -0.061292
H     2.377000    1.058909   -0.031814    0.495525    0.431961   -0.020447
11
* Frequency(10)  523.6003
C     1.319816    0.570120   -0.020526    0.657751    0.097286    0.009454
C     1.154064   -0.809024    0.088826    0.268450    0.216196   -0.009664
N     0.016759   -1.513947    0.116383   -0.068444    0.867149   -0.074384
C    -1.114175   -0.746500    0.021850   -0.406381    0.314638   -0.038040
N    -0.979029    0.673880   -0.092403   -0.144227    0.010700   -0.004684
C     0.184631    1.452944   -0.124429    0.240515   -0.536100    0.050795
O    -2.265590   -1.179529    0.026574   -0.221539   -0.270298    0.016975
O     0.169521    2.690220   -0.227551   -0.212701   -0.629117    0.046263
H     2.077791   -1.410304    0.163699   -0.100689   -0.327701    0.027264
H    -1.872412    1.156331   -0.157987    0.392760    0.876327   -0.061292
H     2.319908    1.009140   -0.029458    0.495525    0.431961   -0.020447
11
* Frequency(10)  523.6003
C     1.248139    0.559518   -0.021556    0.657751    0.097286    0.009454
C     1.124810   -0.832584    0.089879    0.268450    0.216196   -0.009664
N     0.024218   -1.608443    0.124489   -0.068444    0.867149   -0.074384
C    -1.069890   -0.780787    0.025996   -0.406381    0.314638   -0.038040
N    -0.963312    0.672714   -0.091892   -0.144227    0.010700   -0.004684
C     0.158421    1.511365   -0.129964    0.240515   -0.536100    0.050795
O    -2.241448   -1.150074    0.024724   -0.221539   -0.270298    0.016975
O     0.192700    2.758777   -0.232592   -0.212701   -0.629117    0.046263
H     2.088763   -1.374593    0.160728   -0.100689   -0.327701    0.027264
H    -1.915212    1.060835   -0.151308    0.392760    0.876327   -0.061292
H     2.265909    0.962068   -0.027230    0.495525    0.431961   -0.020447
11
* Frequency(10)  523.6003
C     1.188335    0.550673   -0.022416    0.657751    0.097286    0.009454
C     1.100402   -0.852241    0.090758    0.268450    0.216196   -0.009664
N     0.030441   -1.687286    0.131252   -0.068444    0.867149   -0.074384
C    -1.032942   -0.809395    0.029454   -0.406381    0.314638   -0.038040
N    -0.950199    0.671741   -0.091467   -0.144227    0.010700   -0.004684
C     0.136553    1.560108   -0.134583    0.240515   -0.536100    0.050795
O    -2.221305   -1.125498    0.023181   -0.221539   -0.270298    0.016975
O     0.212039    2.815978   -0.236798   -0.212701   -0.629117    0.046263
H     2.097918   -1.344798    0.158249   -0.100689   -0.327701    0.027264
H    -1.950923    0.981157   -0.145735    0.392760    0.876327   -0.061292
H     2.220855    0.922793   -0.025371    0.495525    0.431961   -0.020447
11
* Frequency(10)  523.6003
C     1.146885    0.544542   -0.023012    0.657751    0.097286    0.009454
C     1.083485   -0.865865    0.091367    0.268450    0.216196   -0.009664
N     0.034754   -1.741932    0.135940   -0.068444    0.867149   -0.074384
C    -1.007333   -0.829222    0.031851   -0.406381    0.314638   -0.038040
N    -0.941110    0.671067   -0.091171   -0.144227    0.010700   -0.004684
C     0.121397    1.593891   -0.137783    0.240515   -0.536100    0.050795
O    -2.207345   -1.108464    0.022111   -0.221539   -0.270298    0.016975
O     0.225443    2.855623   -0.239714   -0.212701   -0.629117    0.046263
H     2.104263   -1.324147    0.156531   -0.100689   -0.327701    0.027264
H    -1.975673    0.925934   -0.141873    0.392760    0.876327   -0.061292
H     2.189628    0.895572   -0.024082    0.495525    0.431961   -0.020447
11
* Frequency(10)  523.6003
C     1.128281    0.541790   -0.023279    0.657751    0.097286    0.009454
C     1.075892   -0.871979    0.091640    0.268450    0.216196   -0.009664
N     0.036690   -1.766458    0.138043   -0.068444    0.867149   -0.074384
C    -0.995839   -0.838121    0.032927   -0.406381    0.314638   -0.038040
N    -0.937030    0.670764   -0.091039   -0.144227    0.010700   -0.004684
C     0.114594    1.609054   -0.139220    0.240515   -0.536100    0.050795
O    -2.201079   -1.100819    0.021631   -0.221539   -0.270298    0.016975
O     0.231459    2.873417   -0.241022   -0.212701   -0.629117    0.046263
H     2.107111   -1.314878    0.155760   -0.100689   -0.327701    0.027264
H    -1.986782    0.901148   -0.140139    0.392760    0.876327   -0.061292
H     2.175612    0.883355   -0.023504    0.495525    0.431961   -0.020447
11
* Frequency(10)  523.6003
C     1.134539    0.542716   -0.023189    0.657751    0.097286    0.009454
C     1.078446   -0.869922    0.091548    0.268450    0.216196   -0.009664
N     0.036039   -1.758208    0.137336   -0.068444    0.867149   -0.074384
C    -0.999705   -0.835128    0.032565   -0.406381    0.314638   -0.038040
N    -0.938403    0.670866   -0.091084   -0.144227    0.010700   -0.004684
C     0.116882    1.603954   -0.138737    0.240515   -0.536100    0.050795
O    -2.203186   -1.103391    0.021792   -0.221539   -0.270298    0.016975
O     0.229435    2.867431   -0.240582   -0.212701   -0.629117    0.046263
H     2.106153   -1.317996    0.156019   -0.100689   -0.327701    0.027264
H    -1.983045    0.909486   -0.140722    0.392760    0.876327   -0.061292
H     2.180327    0.887465   -0.023699    0.495525    0.431961   -0.020447
11
* Frequency(10)  523.6003
C     1.164981    0.547219   -0.022752    0.657751    0.097286    0.009454
C     1.090871   -0.859917    0.091101    0.268450    0.216196   -0.009664
N     0.032871   -1.718074    0.133893   -0.068444    0.867149   -0.074384
C    -1.018513   -0.820566    0.030805   -0.406381    0.314638   -0.038040
N    -0.945078    0.671361   -0.091300   -0.144227    0.010700   -0.004684
C     0.128014    1.579142   -0.136386    0.240515   -0.536100    0.050795
O    -2.213440   -1.115901    0.022578   -0.221539   -0.270298    0.016975
O     0.219591    2.838314   -0.238441   -0.212701   -0.629117    0.046263
H     2.101493   -1.333163    0.157281   -0.100689   -0.327701    0.027264
H    -1.964867    0.950044   -0.143559    0.392760    0.876327   -0.061292
H     2.203261    0.907456   -0.024645    0.495525    0.431961   -0.020447
11
* Frequency(10)  523.6003
C     1.216308    0.554810   -0.022014    0.657751    0.097286    0.009454
C     1.111819   -0.843046    0.090347    0.268450    0.216196   -0.009664
N     0.027530   -1.650407    0.128089   -0.068444    0.867149   -0.074384
C    -1.050224   -0.796013    0.027836   -0.406381    0.314638   -0.038040
N    -0.956332    0.672196   -0.091666   -0.144227    0.010700   -0.004684
C     0.146782    1.537308   -0.132422    0.240515   -0.536100    0.050795
O    -2.230727   -1.136993    0.023903   -0.221539   -0.270298    0.016975
O     0.202993    2.789222   -0.234831   -0.212701   -0.629117    0.046263
H     2.093636   -1.358735    0.159408   -0.100689   -0.327701    0.027264
H    -1.934219    1.018427   -0.148342    0.392760    0.876327   -0.061292
H     2.241929    0.941164   -0.026241    0.495525    0.431961   -0.020447
11
* Frequency(10)  523.6003
C     1.282958    0.564668   -0.021056    0.657751    0.097286    0.009454
C     1.139021   -0.821139    0.089367    0.268450    0.216196   -0.009664
N     0.020594   -1.562539    0.120551   -0.068444    0.867149   -0.074384
C    -1.091403   -0.764131    0.023982   -0.406381    0.314638   -0.038040
N    -0.970947    0.673280   -0.092140   -0.144227    0.010700   -0.004684
C     0.171153    1.482985   -0.127275    0.240515   -0.536100    0.050795
O    -2.253176   -1.164382    0.025623   -0.221539   -0.270298    0.016975
O     0.181440    2.725474   -0.230143   -0.212701   -0.629117    0.046263
H     2.083433   -1.391940    0.162171   -0.100689   -0.327701    0.027264
H    -1.894421    1.107225   -0.154553    0.392760    0.876327   -0.061292
H     2.292140    0.984934   -0.028312    0.495525    0.431961   -0.020447
11
* Frequency(10)  523.6003
C     1.357708    0.575724   -0.019982    0.657751    0.097286    0.009454
C     1.169529   -0.796569    0.088269    0.268450    0.216196   -0.009664
N     0.012816   -1.463992    0.112098   -0.068444    0.867149   -0.074384
C    -1.137586   -0.728374    0.019659   -0.406381    0.314638   -0.038040
N    -0.987337    0.674496   -0.092673   -0.144227    0.010700   -0.004684
C     0.198487    1.422060   -0.121503    0.240515   -0.536100    0.050795
O    -2.278352   -1.195100    0.027552   -0.221539   -0.270298    0.016975
O     0.157268    2.653978   -0.224886   -0.212701   -0.629117    0.046263
H     2.071990   -1.429182    0.165269   -0.100689   -0.327701    0.027264
H    -1.849786    1.206815   -0.161518    0.392760    0.876327   -0.061292
H     2.348454    1.034025   -0.030636    0.495525    0.431961   -0.020447
