11
* (null), Energy   -1000.0000000
C     1.357708    0.575724   -0.019982   -0.105867    0.198390   -0.019217
C     1.169529   -0.796569    0.088269    0.048469    0.026813   -0.000965
N     0.012816   -1.463992    0.112098    0.163556   -0.069508    0.010236
C    -1.137586   -0.728374    0.019659   -0.005531    0.142394   -0.012072
N    -0.987337    0.674496   -0.092673    0.180451    0.179189   -0.009826
C     0.198487    1.422060   -0.121503   -0.094792    0.049363   -0.006753
O    -2.278352   -1.195100    0.027552   -0.126591   -0.085916    0.003721
O     0.157268    2.653978   -0.224886    0.009255   -0.149824    0.012669
H     2.071990   -1.429182    0.165269   -0.876090   -1.263504    0.080848
H    -1.849786    1.206815   -0.161518   -0.440952   -0.833070    0.056667
H     2.348454    1.034025   -0.030636    0.278484   -0.654224    0.061451
11
* Frequency(25) 1382.5207
C     1.345676    0.598270   -0.022166   -0.105867    0.198390   -0.019217
C     1.175037   -0.793522    0.088159    0.048469    0.026813   -0.000965
N     0.031403   -1.471892    0.113261    0.163556   -0.069508    0.010236
C    -1.138215   -0.712192    0.018287   -0.005531    0.142394   -0.012072
N    -0.966830    0.694860   -0.093789    0.180451    0.179189   -0.009826
C     0.187714    1.427670   -0.122270   -0.094792    0.049363   -0.006753
O    -2.292739   -1.204864    0.027975   -0.126591   -0.085916    0.003721
O     0.158319    2.636951   -0.223446    0.009255   -0.149824    0.012669
H     1.972427   -1.572773    0.174457   -0.876090   -1.263504    0.080848
H    -1.899898    1.112140   -0.155079   -0.440952   -0.833070    0.056667
H     2.380102    0.959675   -0.023652    0.278484   -0.654224    0.061451
11
* Frequency(25) 1382.5207
C     1.334949    0.618373   -0.024113   -0.105867    0.198390   -0.019217
C     1.179949   -0.790805    0.088062    0.048469    0.026813   -0.000965
N     0.047976   -1.478935    0.114298    0.163556   -0.069508    0.010236
C    -1.138775   -0.697763    0.017064   -0.005531    0.142394   -0.012072
N    -0.948545    0.713017   -0.094785    0.180451    0.179189   -0.009826
C     0.178109    1.432672   -0.122955   -0.094792    0.049363   -0.006753
O    -2.305566   -1.213570    0.028352   -0.126591   -0.085916    0.003721
O     0.159257    2.621770   -0.222162    0.009255   -0.149824    0.012669
H     1.883653   -1.700803    0.182650   -0.876090   -1.263504    0.080848
H    -1.944579    1.027726   -0.149336   -0.440952   -0.833070    0.056667
H     2.408321    0.893383   -0.017426    0.278484   -0.654224    0.061451
11
* Frequency(25) 1382.5207
C     1.326688    0.633854   -0.025612   -0.105867    0.198390   -0.019217
C     1.183731   -0.788713    0.087986    0.048469    0.026813   -0.000965
N     0.060739   -1.484359    0.115097    0.163556   -0.069508    0.010236
C    -1.139207   -0.686651    0.016122   -0.005531    0.142394   -0.012072
N    -0.934464    0.727000   -0.095552    0.180451    0.179189   -0.009826
C     0.170712    1.436524   -0.123482   -0.094792    0.049363   -0.006753
O    -2.315444   -1.220274    0.028642   -0.126591   -0.085916    0.003721
O     0.159979    2.610078   -0.221173    0.009255   -0.149824    0.012669
H     1.815289   -1.799399    0.188959   -0.876090   -1.263504    0.080848
H    -1.978988    0.962718   -0.144915   -0.440952   -0.833070    0.056667
H     2.430052    0.842331   -0.012630    0.278484   -0.654224    0.061451
11
* Frequency(25) 1382.5207
C     1.321788    0.643036   -0.026502   -0.105867    0.198390   -0.019217
C     1.185974   -0.787472    0.087942    0.048469    0.026813   -0.000965
N     0.068309   -1.487576    0.115571    0.163556   -0.069508    0.010236
C    -1.139463   -0.680061    0.015563   -0.005531    0.142394   -0.012072
N    -0.926112    0.735293   -0.096007    0.180451    0.179189   -0.009826
C     0.166325    1.438809   -0.123794   -0.094792    0.049363   -0.006753
O    -2.321303   -1.224251    0.028814   -0.126591   -0.085916    0.003721
O     0.160408    2.603144   -0.220587    0.009255   -0.149824    0.012669
H     1.774742   -1.857876    0.192700   -0.876090   -1.263504    0.080848
H    -1.999396    0.924162   -0.142292   -0.440952   -0.833070    0.056667
H     2.442941    0.812053   -0.009786    0.278484   -0.654224    0.061451
11
* Frequency(25) 1382.5207
C     1.320781    0.644924   -0.026685   -0.105867    0.198390   -0.019217
C     1.186435   -0.787217    0.087932    0.048469    0.026813   -0.000965
N     0.069865   -1.488237    0.115668    0.163556   -0.069508    0.010236
C    -1.139515   -0.678706    0.015448   -0.005531    0.142394   -0.012072
N    -0.924395    0.736998   -0.096100    0.180451    0.179189   -0.009826
C     0.165423    1.439279   -0.123858   -0.094792    0.049363   -0.006753
O    -2.322508   -1.225068    0.028850   -0.126591   -0.085916    0.003721
O     0.160496    2.601719   -0.220466    0.009255   -0.149824    0.012669
H     1.766406   -1.869898    0.193470   -0.876090   -1.263504    0.080848
H    -2.003592    0.916236   -0.141753   -0.440952   -0.833070    0.056667
H     2.445590    0.805828   -0.009202    0.278484   -0.654224    0.061451
11
* Frequency(25) 1382.5207
C     1.323775    0.639312   -0.026141   -0.105867    0.198390   -0.019217
C     1.185064   -0.787975    0.087960    0.048469    0.026813   -0.000965
N     0.065239   -1.486271    0.115379    0.163556   -0.069508    0.010236
C    -1.139359   -0.682734    0.015789   -0.005531    0.142394   -0.012072
N    -0.929499    0.731930   -0.095822    0.180451    0.179189   -0.009826
C     0.168104    1.437882   -0.123667   -0.094792    0.049363   -0.006753
O    -2.318927   -1.222638    0.028745   -0.126591   -0.085916    0.003721
O     0.160234    2.605956   -0.220825    0.009255   -0.149824    0.012669
H     1.791185   -1.834161    0.191183   -0.876090   -1.263504    0.080848
H    -1.991120    0.939799   -0.143356   -0.440952   -0.833070    0.056667
H     2.437714    0.824332   -0.010940    0.278484   -0.654224    0.061451
11
* Frequency(25) 1382.5207
C     1.330447    0.626810   -0.024930   -0.105867    0.198390   -0.019217
C     1.182010   -0.789665    0.088021    0.048469    0.026813   -0.000965
N     0.054932   -1.481891    0.114734    0.163556   -0.069508    0.010236
C    -1.139010   -0.691707    0.016550   -0.005531    0.142394   -0.012072
N    -0.940871    0.720638   -0.095203    0.180451    0.179189   -0.009826
C     0.174077    1.434772   -0.123242   -0.094792    0.049363   -0.006753
O    -2.310950   -1.217224    0.028510   -0.126591   -0.085916    0.003721
O     0.159651    2.615398   -0.221623    0.009255   -0.149824    0.012669
H     1.846394   -1.754538    0.186088   -0.876090   -1.263504    0.080848
H    -1.963332    0.992296   -0.146927   -0.440952   -0.833070    0.056667
H     2.420165    0.865560   -0.014812    0.278484   -0.654224    0.061451
11
* Frequency(25) 1382.5207
C     1.340072    0.608772   -0.023183   -0.105867    0.198390   -0.019217
C     1.177603   -0.792103    0.088108    0.048469    0.026813   -0.000965
N     0.040061   -1.475571    0.113803    0.163556   -0.069508    0.010236
C    -1.138507   -0.704654    0.017648   -0.005531    0.142394   -0.012072
N    -0.957278    0.704346   -0.094310    0.180451    0.179189   -0.009826
C     0.182696    1.430283   -0.122628   -0.094792    0.049363   -0.006753
O    -2.299440   -1.209412    0.028172   -0.126591   -0.085916    0.003721
O     0.158809    2.629020   -0.222775    0.009255   -0.149824    0.012669
H     1.926050   -1.639658    0.178737   -0.876090   -1.263504    0.080848
H    -1.923240    1.068040   -0.152079   -0.440952   -0.833070    0.056667
H     2.394844    0.925043   -0.020399    0.278484   -0.654224    0.061451
11
* Frequency(25) 1382.5207
C     1.351609    0.587153   -0.021089   -0.105867    0.198390   -0.019217
C     1.172321   -0.795025    0.088214    0.048469    0.026813   -0.000965
N     0.022238   -1.467997    0.112688    0.163556   -0.069508    0.010236
C    -1.137905   -0.720171    0.018963   -0.005531    0.142394   -0.012072
N    -0.976942    0.684819   -0.093239    0.180451    0.179189   -0.009826
C     0.193026    1.424904   -0.121892   -0.094792    0.049363   -0.006753
O    -2.285645   -1.200050    0.027766   -0.126591   -0.085916    0.003721
O     0.157801    2.645347   -0.224156    0.009255   -0.149824    0.012669
H     2.021521   -1.501970    0.169927   -0.876090   -1.263504    0.080848
H    -1.875188    1.158823   -0.158254   -0.440952   -0.833070    0.056667
H     2.364497    0.996336   -0.027096    0.278484   -0.654224    0.061451
11
* Frequency(25) 1382.5207
C     1.363807    0.564295   -0.018875   -0.105867    0.198390   -0.019217
C     1.166737   -0.798114    0.088325    0.048469    0.026813   -0.000965
N     0.003394   -1.459988    0.111508    0.163556   -0.069508    0.010236
C    -1.137267   -0.736577    0.020354   -0.005531    0.142394   -0.012072
N    -0.997733    0.664173   -0.092107    0.180451    0.179189   -0.009826
C     0.203947    1.419217   -0.121114   -0.094792    0.049363   -0.006753
O    -2.271060   -1.190151    0.027338   -0.126591   -0.085916    0.003721
O     0.156734    2.662609   -0.225615    0.009255   -0.149824    0.012669
H     2.122460   -1.356394    0.160612   -0.876090   -1.263504    0.080848
H    -1.824383    1.254806   -0.164783   -0.440952   -0.833070    0.056667
H     2.332411    1.071713   -0.034176    0.278484   -0.654224    0.061451
11
* Frequency(25) 1382.5207
C     1.375343    0.542676   -0.016780   -0.105867    0.198390   -0.019217
C     1.161455   -0.801036    0.088430    0.048469    0.026813   -0.000965
N    -0.014429   -1.452414    0.110393    0.163556   -0.069508    0.010236
C    -1.136664   -0.752094    0.021670   -0.005531    0.142394   -0.012072
N    -1.017397    0.644647   -0.091036    0.180451    0.179189   -0.009826
C     0.214277    1.413837   -0.120378   -0.094792    0.049363   -0.006753
O    -2.257265   -1.180788    0.026932   -0.126591   -0.085916    0.003721
O     0.155726    2.678936   -0.226996    0.009255   -0.149824    0.012669
H     2.217931   -1.218705    0.151802   -0.876090   -1.263504    0.080848
H    -1.776331    1.345589   -0.170958   -0.440952   -0.833070    0.056667
H     2.302064    1.143006   -0.040873    0.278484   -0.654224    0.061451
11
* Frequency(25) 1382.5207
C     1.384969    0.524638   -0.015033   -0.105867    0.198390   -0.019217
C     1.157048   -0.803474    0.088518    0.048469    0.026813   -0.000965
N    -0.029300   -1.446094    0.109462    0.163556   -0.069508    0.010236
C    -1.136162   -0.765041    0.022767   -0.005531    0.142394   -0.012072
N    -1.033804    0.628354   -0.090142    0.180451    0.179189   -0.009826
C     0.222896    1.409349   -0.119764   -0.094792    0.049363   -0.006753
O    -2.245755   -1.172976    0.026594   -0.126591   -0.085916    0.003721
O     0.154884    2.692558   -0.228148    0.009255   -0.149824    0.012669
H     2.297587   -1.103825    0.144451   -0.876090   -1.263504    0.080848
H    -1.736239    1.421333   -0.176110   -0.440952   -0.833070    0.056667
H     2.276743    1.202490   -0.046460    0.278484   -0.654224    0.061451
11
* Frequency(25) 1382.5207
C     1.391640    0.512136   -0.013822   -0.105867    0.198390   -0.019217
C     1.153993   -0.805164    0.088578    0.048469    0.026813   -0.000965
N    -0.039607   -1.441713    0.108817    0.163556   -0.069508    0.010236
C    -1.135813   -0.774014    0.023528   -0.005531    0.142394   -0.012072
N    -1.045176    0.617062   -0.089523    0.180451    0.179189   -0.009826
C     0.228869    1.406238   -0.119338   -0.094792    0.049363   -0.006753
O    -2.237778   -1.167562    0.026359   -0.126591   -0.085916    0.003721
O     0.154301    2.702000   -0.228946    0.009255   -0.149824    0.012669
H     2.352796   -1.024203    0.139356   -0.876090   -1.263504    0.080848
H    -1.708451    1.473831   -0.179681   -0.440952   -0.833070    0.056667
H     2.259194    1.243717   -0.050333    0.278484   -0.654224    0.061451
11
* Frequency(25) 1382.5207
C     1.394635    0.506525   -0.013278   -0.105867    0.198390   -0.019217
C     1.152622   -0.805922    0.088606    0.048469    0.026813   -0.000965
N    -0.044233   -1.439747    0.108528    0.163556   -0.069508    0.010236
C    -1.135657   -0.778042    0.023870   -0.005531    0.142394   -0.012072
N    -1.050280    0.611994   -0.089245    0.180451    0.179189   -0.009826
C     0.231550    1.404842   -0.119147   -0.094792    0.049363   -0.006753
O    -2.234197   -1.165132    0.026254   -0.126591   -0.085916    0.003721
O     0.154039    2.706237   -0.229305    0.009255   -0.149824    0.012669
H     2.377575   -0.988466    0.137069   -0.876090   -1.263504    0.080848
H    -1.695979    1.497393   -0.181284   -0.440952   -0.833070    0.056667
H     2.251318    1.262221   -0.052071    0.278484   -0.654224    0.061451
11
* Frequency(25) 1382.5207
C     1.393627    0.508413   -0.013461   -0.105867    0.198390   -0.019217
C     1.153084   -0.805667    0.088597    0.048469    0.026813   -0.000965
N    -0.042677   -1.440409    0.108625    0.163556   -0.069508    0.010236
C    -1.135709   -0.776687    0.023755   -0.005531    0.142394   -0.012072
N    -1.048563    0.613699   -0.089339    0.180451    0.179189   -0.009826
C     0.230649    1.405312   -0.119211   -0.094792    0.049363   -0.006753
O    -2.235401   -1.165950    0.026289   -0.126591   -0.085916    0.003721
O     0.154127    2.704812   -0.229184    0.009255   -0.149824    0.012669
H     2.369239   -1.000488    0.137838   -0.876090   -1.263504    0.080848
H    -1.700175    1.489467   -0.180745   -0.440952   -0.833070    0.056667
H     2.253967    1.255996   -0.051486    0.278484   -0.654224    0.061451
11
* Frequency(25) 1382.5207
C     1.388728    0.517594   -0.014351   -0.105867    0.198390   -0.019217
C     1.155327   -0.804426    0.088552    0.048469    0.026813   -0.000965
N    -0.035107   -1.443626    0.109099    0.163556   -0.069508    0.010236
C    -1.135965   -0.770097    0.023196   -0.005531    0.142394   -0.012072
N    -1.040211    0.621992   -0.089794    0.180451    0.179189   -0.009826
C     0.226261    1.407596   -0.119524   -0.094792    0.049363   -0.006753
O    -2.241260   -1.169926    0.026462   -0.126591   -0.085916    0.003721
O     0.154556    2.697878   -0.228598    0.009255   -0.149824    0.012669
H     2.328692   -1.058965    0.141580   -0.876090   -1.263504    0.080848
H    -1.720583    1.450911   -0.178122   -0.440952   -0.833070    0.056667
H     2.266856    1.225718   -0.048642    0.278484   -0.654224    0.061451
11
* Frequency(25) 1382.5207
C     1.380467    0.533075   -0.015850   -0.105867    0.198390   -0.019217
C     1.159109   -0.802333    0.088477    0.048469    0.026813   -0.000965
N    -0.022344   -1.449050    0.109897    0.163556   -0.069508    0.010236
C    -1.136397   -0.758985    0.022254   -0.005531    0.142394   -0.012072
N    -1.026130    0.635975   -0.090560    0.180451    0.179189   -0.009826
C     0.218864    1.411449   -0.120051   -0.094792    0.049363   -0.006753
O    -2.251139   -1.176630    0.026752   -0.126591   -0.085916    0.003721
O     0.155278    2.686186   -0.227609    0.009255   -0.149824    0.012669
H     2.260327   -1.157561    0.147889   -0.876090   -1.263504    0.080848
H    -1.754992    1.385903   -0.173700   -0.440952   -0.833070    0.056667
H     2.288587    1.174666   -0.043847    0.278484   -0.654224    0.061451
11
* Frequency(25) 1382.5207
C     1.369739    0.553178   -0.017798   -0.105867    0.198390   -0.019217
C     1.164021   -0.799617    0.088379    0.048469    0.026813   -0.000965
N    -0.005771   -1.456093    0.110935    0.163556   -0.069508    0.010236
C    -1.136957   -0.744556    0.021031   -0.005531    0.142394   -0.012072
N    -1.007845    0.654132   -0.091556    0.180451    0.179189   -0.009826
C     0.209259    1.416450   -0.120735   -0.094792    0.049363   -0.006753
O    -2.263966   -1.185336    0.027129   -0.126591   -0.085916    0.003721
O     0.156216    2.671005   -0.226325    0.009255   -0.149824    0.012669
H     2.171554   -1.285591    0.156081   -0.876090   -1.263504    0.080848
H    -1.799674    1.301489   -0.167958   -0.440952   -0.833070    0.056667
H     2.316806    1.108374   -0.037620    0.278484   -0.654224    0.061451
11
* Frequency(25) 1382.5207
C     1.357708    0.575724   -0.019982   -0.105867    0.198390   -0.019217
C     1.169529   -0.796569    0.088269    0.048469    0.026813   -0.000965
N     0.012816   -1.463992    0.112098    0.163556   -0.069508    0.010236
C    -1.137586   -0.728374    0.019659   -0.005531    0.142394   -0.012072
N    -0.987337    0.674496   -0.092673    0.180451    0.179189   -0.009826
C     0.198487    1.422060   -0.121503   -0.094792    0.049363   -0.006753
O    -2.278352   -1.195100    0.027552   -0.126591   -0.085916    0.003721
O     0.157268    2.653978   -0.224886    0.009255   -0.149824    0.012669
H     2.071990   -1.429182    0.165269   -0.876090   -1.263504    0.080848
H    -1.849786    1.206815   -0.161518   -0.440952   -0.833070    0.056667
H     2.348454    1.034025   -0.030636    0.278484   -0.654224    0.061451
