11
* (null), Energy   -1000.0000000
C     1.591454    0.406609    0.009810   -0.352798   -0.030385   -0.006537
C     1.402862   -0.965542    0.118363    0.401522    0.025793    0.008589
N     0.246024   -1.632751    0.142050    0.315761    0.072771    0.002761
C    -0.904486   -0.897558    0.049520    0.251300    0.077577    0.000424
N    -0.754011    0.505509   -0.063362   -0.450817    0.011942   -0.013021
C     0.431975    1.252895   -0.092416   -0.549223   -0.392989    0.017691
O    -2.045071   -1.364389    0.057523    0.077074    0.549754   -0.043802
O     0.390516    2.484935   -0.194533    0.288945   -0.423629    0.042605
H     2.305441   -1.598210    0.195810    0.514295    0.189148   -0.002471
H    -1.616489    1.037825   -0.130328   -0.705311   -0.410686    0.015651
H     2.582079    0.864994   -0.000426   -0.772334    0.855586   -0.091915
11
* Frequency(11)  561.2371
C     1.551361    0.403156    0.009068   -0.352798   -0.030385   -0.006537
C     1.448493   -0.962611    0.119339    0.401522    0.025793    0.008589
N     0.281908   -1.624481    0.142363    0.315761    0.072771    0.002761
C    -0.875928   -0.888742    0.049568    0.251300    0.077577    0.000424
N    -0.805244    0.506866   -0.064842   -0.450817    0.011942   -0.013021
C     0.369559    1.208234   -0.090405   -0.549223   -0.392989    0.017691
O    -2.036312   -1.301912    0.052545    0.077074    0.549754   -0.043802
O     0.423353    2.436792   -0.189691    0.288945   -0.423629    0.042605
H     2.363888   -1.576714    0.195529    0.514295    0.189148   -0.002471
H    -1.696644    0.991152   -0.128549   -0.705311   -0.410686    0.015651
H     2.494308    0.962226   -0.010872   -0.772334    0.855586   -0.091915
11
* Frequency(11)  561.2371
C     1.515612    0.400077    0.008405   -0.352798   -0.030385   -0.006537
C     1.489179   -0.959997    0.120210    0.401522    0.025793    0.008589
N     0.313904   -1.617107    0.142643    0.315761    0.072771    0.002761
C    -0.850463   -0.880881    0.049611    0.251300    0.077577    0.000424
N    -0.850925    0.508076   -0.066161   -0.450817    0.011942   -0.013021
C     0.313906    1.168413   -0.088613   -0.549223   -0.392989    0.017691
O    -2.028502   -1.246206    0.048107    0.077074    0.549754   -0.043802
O     0.452632    2.393865   -0.185374    0.288945   -0.423629    0.042605
H     2.416001   -1.557548    0.195279    0.514295    0.189148   -0.002471
H    -1.768113    0.949538   -0.126963   -0.705311   -0.410686    0.015651
H     2.416047    1.048923   -0.020185   -0.772334    0.855586   -0.091915
11
* Frequency(11)  561.2371
C     1.488082    0.397706    0.007895   -0.352798   -0.030385   -0.006537
C     1.520511   -0.957984    0.120880    0.401522    0.025793    0.008589
N     0.338544   -1.611428    0.142859    0.315761    0.072771    0.002761
C    -0.830853   -0.874827    0.049644    0.251300    0.077577    0.000424
N    -0.886104    0.509008   -0.067177   -0.450817    0.011942   -0.013021
C     0.271048    1.137746   -0.087232   -0.549223   -0.392989    0.017691
O    -2.022487   -1.203307    0.044689    0.077074    0.549754   -0.043802
O     0.475179    2.360808   -0.182049    0.288945   -0.423629    0.042605
H     2.456134   -1.542788    0.195086    0.514295    0.189148   -0.002471
H    -1.823151    0.917490   -0.125742   -0.705311   -0.410686    0.015651
H     2.355779    1.115687   -0.027358   -0.772334    0.855586   -0.091915
11
* Frequency(11)  561.2371
C     1.471753    0.396300    0.007593   -0.352798   -0.030385   -0.006537
C     1.539094   -0.956791    0.121277    0.401522    0.025793    0.008589
N     0.353158   -1.608060    0.142987    0.315761    0.072771    0.002761
C    -0.819223   -0.871237    0.049663    0.251300    0.077577    0.000424
N    -0.906969    0.509561   -0.067780   -0.450817    0.011942   -0.013021
C     0.245629    1.119558   -0.086413   -0.549223   -0.392989    0.017691
O    -2.018920   -1.177863    0.042661    0.077074    0.549754   -0.043802
O     0.488552    2.341202   -0.180078    0.288945   -0.423629    0.042605
H     2.479936   -1.534034    0.194972    0.514295    0.189148   -0.002471
H    -1.855794    0.898483   -0.125017   -0.705311   -0.410686    0.015651
H     2.320034    1.155285   -0.031612   -0.772334    0.855586   -0.091915
11
* Frequency(11)  561.2371
C     1.468397    0.396011    0.007530   -0.352798   -0.030385   -0.006537
C     1.542915   -0.956545    0.121359    0.401522    0.025793    0.008589
N     0.356163   -1.607368    0.143013    0.315761    0.072771    0.002761
C    -0.816832   -0.870499    0.049667    0.251300    0.077577    0.000424
N    -0.911258    0.509675   -0.067903   -0.450817    0.011942   -0.013021
C     0.240404    1.115819   -0.086245   -0.549223   -0.392989    0.017691
O    -2.018187   -1.172632    0.042245    0.077074    0.549754   -0.043802
O     0.491301    2.337171   -0.179672    0.288945   -0.423629    0.042605
H     2.484829   -1.532234    0.194948    0.514295    0.189148   -0.002471
H    -1.862505    0.894576   -0.124869   -0.705311   -0.410686    0.015651
H     2.312686    1.163426   -0.032486   -0.772334    0.855586   -0.091915
11
* Frequency(11)  561.2371
C     1.478375    0.396870    0.007715   -0.352798   -0.030385   -0.006537
C     1.531558   -0.957275    0.121116    0.401522    0.025793    0.008589
N     0.347232   -1.609426    0.142935    0.315761    0.072771    0.002761
C    -0.823940   -0.872693    0.049655    0.251300    0.077577    0.000424
N    -0.898507    0.509337   -0.067535   -0.450817    0.011942   -0.013021
C     0.255938    1.126934   -0.086746   -0.549223   -0.392989    0.017691
O    -2.020367   -1.188182    0.043483    0.077074    0.549754   -0.043802
O     0.483129    2.349153   -0.180877    0.288945   -0.423629    0.042605
H     2.470283   -1.537584    0.195018    0.514295    0.189148   -0.002471
H    -1.842556    0.906191   -0.125311   -0.705311   -0.410686    0.015651
H     2.334530    1.139226   -0.029887   -0.772334    0.855586   -0.091915
11
* Frequency(11)  561.2371
C     1.500608    0.398785    0.008127   -0.352798   -0.030385   -0.006537
C     1.506255   -0.958900    0.120575    0.401522    0.025793    0.008589
N     0.327333   -1.614012    0.142761    0.315761    0.072771    0.002761
C    -0.839776   -0.877582    0.049629    0.251300    0.077577    0.000424
N    -0.870098    0.508584   -0.066715   -0.450817    0.011942   -0.013021
C     0.290548    1.151699   -0.087860   -0.549223   -0.392989    0.017691
O    -2.025224   -1.222826    0.046244    0.077074    0.549754   -0.043802
O     0.464920    2.375849   -0.183562    0.288945   -0.423629    0.042605
H     2.437874   -1.549504    0.195174    0.514295    0.189148   -0.002471
H    -1.798109    0.932072   -0.126298   -0.705311   -0.410686    0.015651
H     2.383201    1.085310   -0.024094   -0.772334    0.855586   -0.091915
11
* Frequency(11)  561.2371
C     1.532685    0.401548    0.008722   -0.352798   -0.030385   -0.006537
C     1.469748   -0.961245    0.119794    0.401522    0.025793    0.008589
N     0.298624   -1.620628    0.142510    0.315761    0.072771    0.002761
C    -0.862624   -0.884635    0.049590    0.251300    0.077577    0.000424
N    -0.829109    0.507499   -0.065531   -0.450817    0.011942   -0.013021
C     0.340485    1.187430   -0.089469   -0.549223   -0.392989    0.017691
O    -2.032232   -1.272810    0.050226    0.077074    0.549754   -0.043802
O     0.438649    2.414366   -0.187436    0.288945   -0.423629    0.042605
H     2.391113   -1.566701    0.195398    0.514295    0.189148   -0.002471
H    -1.733981    0.969412   -0.127721   -0.705311   -0.410686    0.015651
H     2.453423    1.007518   -0.015737   -0.772334    0.855586   -0.091915
11
* Frequency(11)  561.2371
C     1.571130    0.404859    0.009434   -0.352798   -0.030385   -0.006537
C     1.425993   -0.964056    0.118858    0.401522    0.025793    0.008589
N     0.264214   -1.628558    0.142209    0.315761    0.072771    0.002761
C    -0.890010   -0.893089    0.049544    0.251300    0.077577    0.000424
N    -0.779982    0.506197   -0.064112   -0.450817    0.011942   -0.013021
C     0.400335    1.230256   -0.091397   -0.549223   -0.392989    0.017691
O    -2.040631   -1.332719    0.055000    0.077074    0.549754   -0.043802
O     0.407162    2.460530   -0.192079    0.288945   -0.423629    0.042605
H     2.335069   -1.587314    0.195668    0.514295    0.189148   -0.002471
H    -1.657120    1.014166   -0.129426   -0.705311   -0.410686    0.015651
H     2.537587    0.914282   -0.005721   -0.772334    0.855586   -0.091915
11
* Frequency(11)  561.2371
C     1.611778    0.408360    0.010187   -0.352798   -0.030385   -0.006537
C     1.379731   -0.967028    0.117869    0.401522    0.025793    0.008589
N     0.227833   -1.636943    0.141891    0.315761    0.072771    0.002761
C    -0.918963   -0.902027    0.049495    0.251300    0.077577    0.000424
N    -0.728040    0.504821   -0.062612   -0.450817    0.011942   -0.013021
C     0.463615    1.275535   -0.093435   -0.549223   -0.392989    0.017691
O    -2.049511   -1.396059    0.060046    0.077074    0.549754   -0.043802
O     0.373871    2.509339   -0.196987    0.288945   -0.423629    0.042605
H     2.275813   -1.609106    0.195952    0.514295    0.189148   -0.002471
H    -1.575857    1.061484   -0.131229   -0.705311   -0.410686    0.015651
H     2.626572    0.815705    0.004869   -0.772334    0.855586   -0.091915
11
* Frequency(11)  561.2371
C     1.650224    0.411671    0.010899   -0.352798   -0.030385   -0.006537
C     1.335976   -0.969838    0.116933    0.401522    0.025793    0.008589
N     0.193424   -1.644873    0.141590    0.315761    0.072771    0.002761
C    -0.946349   -0.910481    0.049449    0.251300    0.077577    0.000424
N    -0.678913    0.503520   -0.061193   -0.450817    0.011942   -0.013021
C     0.523466    1.318360   -0.095363   -0.549223   -0.392989    0.017691
O    -2.057910   -1.455968    0.064820    0.077074    0.549754   -0.043802
O     0.342383    2.555504   -0.201630    0.288945   -0.423629    0.042605
H     2.219769   -1.629719    0.196222    0.514295    0.189148   -0.002471
H    -1.498997    1.106238   -0.132935   -0.705311   -0.410686    0.015651
H     2.710736    0.722469    0.014885   -0.772334    0.855586   -0.091915
11
* Frequency(11)  561.2371
C     1.682301    0.414433    0.011494   -0.352798   -0.030385   -0.006537
C     1.299469   -0.972183    0.116152    0.401522    0.025793    0.008589
N     0.164714   -1.651489    0.141339    0.315761    0.072771    0.002761
C    -0.969197   -0.917535    0.049410    0.251300    0.077577    0.000424
N    -0.637924    0.502434   -0.060009   -0.450817    0.011942   -0.013021
C     0.573402    1.354091   -0.096972   -0.549223   -0.392989    0.017691
O    -2.064918   -1.505952    0.068802    0.077074    0.549754   -0.043802
O     0.316112    2.594021   -0.205504    0.288945   -0.423629    0.042605
H     2.173008   -1.646916    0.196446    0.514295    0.189148   -0.002471
H    -1.434869    1.143578   -0.134358   -0.705311   -0.410686    0.015651
H     2.780958    0.644677    0.023242   -0.772334    0.855586   -0.091915
11
* Frequency(11)  561.2371
C     1.704533    0.416348    0.011906   -0.352798   -0.030385   -0.006537
C     1.274166   -0.973809    0.115610    0.401522    0.025793    0.008589
N     0.144816   -1.656075    0.141165    0.315761    0.072771    0.002761
C    -0.985033   -0.922423    0.049384    0.251300    0.077577    0.000424
N    -0.609515    0.501681   -0.059188   -0.450817    0.011942   -0.013021
C     0.608013    1.378856   -0.098086   -0.549223   -0.392989    0.017691
O    -2.069775   -1.540596    0.071563    0.077074    0.549754   -0.043802
O     0.297903    2.620717   -0.208189    0.288945   -0.423629    0.042605
H     2.140599   -1.658836    0.196602    0.514295    0.189148   -0.002471
H    -1.390422    1.169458   -0.135344   -0.705311   -0.410686    0.015651
H     2.829628    0.590761    0.029035   -0.772334    0.855586   -0.091915
11
* Frequency(11)  561.2371
C     1.714512    0.417208    0.012091   -0.352798   -0.030385   -0.006537
C     1.262809   -0.974538    0.115367    0.401522    0.025793    0.008589
N     0.135885   -1.658133    0.141087    0.315761    0.072771    0.002761
C    -0.992141   -0.924618    0.049372    0.251300    0.077577    0.000424
N    -0.596764    0.501344   -0.058820   -0.450817    0.011942   -0.013021
C     0.623547    1.389972   -0.098587   -0.549223   -0.392989    0.017691
O    -2.071955   -1.556146    0.072801    0.077074    0.549754   -0.043802
O     0.289731    2.632698   -0.209394    0.288945   -0.423629    0.042605
H     2.126053   -1.664186    0.196672    0.514295    0.189148   -0.002471
H    -1.370473    1.181074   -0.135787   -0.705311   -0.410686    0.015651
H     2.851473    0.566561    0.031634   -0.772334    0.855586   -0.091915
11
* Frequency(11)  561.2371
C     1.711155    0.416919    0.012028   -0.352798   -0.030385   -0.006537
C     1.266630   -0.974293    0.115449    0.401522    0.025793    0.008589
N     0.138889   -1.657441    0.141113    0.315761    0.072771    0.002761
C    -0.989750   -0.923880    0.049376    0.251300    0.077577    0.000424
N    -0.601053    0.501457   -0.058944   -0.450817    0.011942   -0.013021
C     0.618321    1.386232   -0.098419   -0.549223   -0.392989    0.017691
O    -2.071221   -1.550915    0.072385    0.077074    0.549754   -0.043802
O     0.292480    2.628668   -0.208989    0.288945   -0.423629    0.042605
H     2.130946   -1.662386    0.196648    0.514295    0.189148   -0.002471
H    -1.377184    1.177167   -0.135638   -0.705311   -0.410686    0.015651
H     2.844125    0.574702    0.030760   -0.772334    0.855586   -0.091915
11
* Frequency(11)  561.2371
C     1.694827    0.415512    0.011726   -0.352798   -0.030385   -0.006537
C     1.285213   -0.973099    0.115847    0.401522    0.025793    0.008589
N     0.153503   -1.654073    0.141241    0.315761    0.072771    0.002761
C    -0.978120   -0.920289    0.049395    0.251300    0.077577    0.000424
N    -0.621918    0.502010   -0.059547   -0.450817    0.011942   -0.013021
C     0.592902    1.368044   -0.097600   -0.549223   -0.392989    0.017691
O    -2.067654   -1.525471    0.070357    0.077074    0.549754   -0.043802
O     0.305853    2.609062   -0.207017    0.288945   -0.423629    0.042605
H     2.154748   -1.653632    0.196534    0.514295    0.189148   -0.002471
H    -1.409827    1.158159   -0.134914   -0.705311   -0.410686    0.015651
H     2.808380    0.614300    0.026506   -0.772334    0.855586   -0.091915
11
* Frequency(11)  561.2371
C     1.667297    0.413141    0.011216   -0.352798   -0.030385   -0.006537
C     1.316545   -0.971087    0.116517    0.401522    0.025793    0.008589
N     0.178143   -1.648394    0.141456    0.315761    0.072771    0.002761
C    -0.958510   -0.914235    0.049429    0.251300    0.077577    0.000424
N    -0.657097    0.502942   -0.060563   -0.450817    0.011942   -0.013021
C     0.550044    1.337378   -0.096219   -0.549223   -0.392989    0.017691
O    -2.061640   -1.482572    0.066939    0.077074    0.549754   -0.043802
O     0.328400    2.576004   -0.203692    0.288945   -0.423629    0.042605
H     2.194881   -1.638872    0.196341    0.514295    0.189148   -0.002471
H    -1.464865    1.126112   -0.133692   -0.705311   -0.410686    0.015651
H     2.748111    0.681065    0.019333   -0.772334    0.855586   -0.091915
11
* Frequency(11)  561.2371
C     1.631548    0.410062    0.010553   -0.352798   -0.030385   -0.006537
C     1.357231   -0.968473    0.117387    0.401522    0.025793    0.008589
N     0.210139   -1.641021    0.141736    0.315761    0.072771    0.002761
C    -0.933045   -0.906375    0.049471    0.251300    0.077577    0.000424
N    -0.702778    0.504152   -0.061882   -0.450817    0.011942   -0.013021
C     0.494392    1.297556   -0.094427   -0.549223   -0.392989    0.017691
O    -2.053830   -1.426866    0.062501    0.077074    0.549754   -0.043802
O     0.357679    2.533078   -0.199375    0.288945   -0.423629    0.042605
H     2.246994   -1.619706    0.196091    0.514295    0.189148   -0.002471
H    -1.536334    1.084497   -0.132106   -0.705311   -0.410686    0.015651
H     2.669851    0.767761    0.010020   -0.772334    0.855586   -0.091915
11
* Frequency(11)  561.2371
C     1.591454    0.406609    0.009810   -0.352798   -0.030385   -0.006537
C     1.402862   -0.965542    0.118363    0.401522    0.025793    0.008589
N     0.246024   -1.632751    0.142050    0.315761    0.072771    0.002761
C    -0.904486   -0.897558    0.049520    0.251300    0.077577    0.000424
N    -0.754011    0.505509   -0.063362   -0.450817    0.011942   -0.013021
C     0.431975    1.252895   -0.092416   -0.549223   -0.392989    0.017691
O    -2.045071   -1.364389    0.057523    0.077074    0.549754   -0.043802
O     0.390516    2.484935   -0.194533    0.288945   -0.423629    0.042605
H     2.305441   -1.598210    0.195810    0.514295    0.189148   -0.002471
H    -1.616489    1.037825   -0.130328   -0.705311   -0.410686    0.015651
H     2.582079    0.864994   -0.000426   -0.772334    0.855586   -0.091915
