11
* (null), Energy   -1000.0000000
C     1.591454    0.406609    0.009810   -0.294728    0.140807   -0.019708
C     1.402862   -0.965542    0.118363   -0.011774   -0.152753    0.012324
N     0.246024   -1.632751    0.142050    0.315796   -0.203920    0.025537
C    -0.904486   -0.897558    0.049520   -0.300657    0.770382   -0.072057
N    -0.754011    0.505509   -0.063362   -0.229376   -0.416499    0.028141
C     0.431975    1.252895   -0.092416    0.614284    0.068364    0.011252
O    -2.045071   -1.364389    0.057523   -0.068749   -0.066208    0.003580
O     0.390516    2.484935   -0.194533   -0.010631   -0.013853    0.000891
H     2.305441   -1.598210    0.195810    0.749597    0.868322   -0.051594
H    -1.616489    1.037825   -0.130328   -0.511060   -0.874321    0.059001
H     2.582079    0.864994   -0.000426   -0.264394    0.046096   -0.011735
11
* Frequency(22) 1144.6988
C     1.557960    0.422611    0.007571   -0.294728    0.140807   -0.019708
C     1.401524   -0.982901    0.119764   -0.011774   -0.152753    0.012324
N     0.281912   -1.655925    0.144952    0.315796   -0.203920    0.025537
C    -0.938655   -0.810008    0.041331   -0.300657    0.770382   -0.072057
N    -0.780079    0.458176   -0.060164   -0.229376   -0.416499    0.028141
C     0.501785    1.260664   -0.091137    0.614284    0.068364    0.011252
O    -2.052884   -1.371913    0.057930   -0.068749   -0.066208    0.003580
O     0.389308    2.483360   -0.194432   -0.010631   -0.013853    0.000891
H     2.390629   -1.499530    0.189947    0.749597    0.868322   -0.051594
H    -1.674568    0.938463   -0.123623   -0.511060   -0.874321    0.059001
H     2.552032    0.870232   -0.001760   -0.264394    0.046096   -0.011735
11
* Frequency(22) 1144.6988
C     1.528095    0.436879    0.005574   -0.294728    0.140807   -0.019708
C     1.400331   -0.998380    0.121013   -0.011774   -0.152753    0.012324
N     0.313912   -1.676588    0.147539    0.315796   -0.203920    0.025537
C    -0.969120   -0.731946    0.034029   -0.300657    0.770382   -0.072057
N    -0.803321    0.415972   -0.057312   -0.229376   -0.416499    0.028141
C     0.564031    1.267592   -0.089997    0.614284    0.068364    0.011252
O    -2.059850   -1.378622    0.058293   -0.068749   -0.066208    0.003580
O     0.388231    2.481957   -0.194342   -0.010631   -0.013853    0.000891
H     2.466585   -1.411543    0.184719    0.749597    0.868322   -0.051594
H    -1.726354    0.849868   -0.117644   -0.511060   -0.874321    0.059001
H     2.525241    0.874903   -0.002949   -0.264394    0.046096   -0.011735
11
* Frequency(22) 1144.6988
C     1.505097    0.447867    0.004036   -0.294728    0.140807   -0.019708
C     1.399412   -1.010300    0.121974   -0.011774   -0.152753    0.012324
N     0.338555   -1.692501    0.149532    0.315796   -0.203920    0.025537
C    -0.992582   -0.671830    0.028406   -0.300657    0.770382   -0.072057
N    -0.821220    0.383471   -0.055116   -0.229376   -0.416499    0.028141
C     0.611966    1.272926   -0.089119    0.614284    0.068364    0.011252
O    -2.065215   -1.383788    0.058572   -0.068749   -0.066208    0.003580
O     0.387401    2.480876   -0.194272   -0.010631   -0.013853    0.000891
H     2.525079   -1.343784    0.180692    0.749597    0.868322   -0.051594
H    -1.766234    0.781642   -0.113040   -0.511060   -0.874321    0.059001
H     2.504610    0.878500   -0.003864   -0.264394    0.046096   -0.011735
11
* Frequency(22) 1144.6988
C     1.491456    0.454384    0.003124   -0.294728    0.140807   -0.019708
C     1.398867   -1.017369    0.122545   -0.011774   -0.152753    0.012324
N     0.353170   -1.701939    0.150714    0.315796   -0.203920    0.025537
C    -1.006497   -0.636175    0.025071   -0.300657    0.770382   -0.072057
N    -0.831836    0.364195   -0.053814   -0.229376   -0.416499    0.028141
C     0.640396    1.276090   -0.088598    0.614284    0.068364    0.011252
O    -2.068397   -1.386853    0.058738   -0.068749   -0.066208    0.003580
O     0.386909    2.480235   -0.194231   -0.010631   -0.013853    0.000891
H     2.559772   -1.303597    0.178305    0.749597    0.868322   -0.051594
H    -1.789887    0.741176   -0.110309   -0.511060   -0.874321    0.059001
H     2.492373    0.880634   -0.004408   -0.264394    0.046096   -0.011735
11
* Frequency(22) 1144.6988
C     1.488652    0.455723    0.002936   -0.294728    0.140807   -0.019708
C     1.398755   -1.018823    0.122662   -0.011774   -0.152753    0.012324
N     0.356175   -1.703879    0.150957    0.315796   -0.203920    0.025537
C    -1.009357   -0.628846    0.024386   -0.300657    0.770382   -0.072057
N    -0.834018    0.360232   -0.053546   -0.229376   -0.416499    0.028141
C     0.646240    1.276741   -0.088491    0.614284    0.068364    0.011252
O    -2.069051   -1.387483    0.058772   -0.068749   -0.066208    0.003580
O     0.386808    2.480103   -0.194222   -0.010631   -0.013853    0.000891
H     2.566904   -1.295335    0.177814    0.749597    0.868322   -0.051594
H    -1.794749    0.732858   -0.109748   -0.511060   -0.874321    0.059001
H     2.489858    0.881072   -0.004519   -0.264394    0.046096   -0.011735
11
* Frequency(22) 1144.6988
C     1.496988    0.451741    0.003494   -0.294728    0.140807   -0.019708
C     1.399088   -1.014502    0.122313   -0.011774   -0.152753    0.012324
N     0.347243   -1.698111    0.150235    0.315796   -0.203920    0.025537
C    -1.000853   -0.650635    0.026424   -0.300657    0.770382   -0.072057
N    -0.827531    0.372013   -0.054342   -0.229376   -0.416499    0.028141
C     0.628866    1.274807   -0.088810    0.614284    0.068364    0.011252
O    -2.067106   -1.385610    0.058670   -0.068749   -0.066208    0.003580
O     0.387109    2.480495   -0.194248   -0.010631   -0.013853    0.000891
H     2.545702   -1.319895    0.179273    0.749597    0.868322   -0.051594
H    -1.780294    0.757587   -0.111417   -0.511060   -0.874321    0.059001
H     2.497336    0.879768   -0.004187   -0.264394    0.046096   -0.011735
11
* Frequency(22) 1144.6988
C     1.515561    0.442867    0.004736   -0.294728    0.140807   -0.019708
C     1.399830   -1.004876    0.121537   -0.011774   -0.152753    0.012324
N     0.327342   -1.685261    0.148626    0.315796   -0.203920    0.025537
C    -0.981907   -0.699182    0.030965   -0.300657    0.770382   -0.072057
N    -0.813076    0.398259   -0.056115   -0.229376   -0.416499    0.028141
C     0.590155    1.270499   -0.089519    0.614284    0.068364    0.011252
O    -2.062774   -1.381438    0.058445   -0.068749   -0.066208    0.003580
O     0.387778    2.481368   -0.194304   -0.010631   -0.013853    0.000891
H     2.498465   -1.374614    0.182524    0.749597    0.868322   -0.051594
H    -1.748089    0.812684   -0.115135   -0.511060   -0.874321    0.059001
H     2.513997    0.876864   -0.003448   -0.264394    0.046096   -0.011735
11
* Frequency(22) 1144.6988
C     1.542358    0.430065    0.006527   -0.294728    0.140807   -0.019708
C     1.400901   -0.990988    0.120416   -0.011774   -0.152753    0.012324
N     0.298630   -1.666720    0.146304    0.315796   -0.203920    0.025537
C    -0.954570   -0.769227    0.037516   -0.300657    0.770382   -0.072057
N    -0.792221    0.436128   -0.058674   -0.229376   -0.416499    0.028141
C     0.534304    1.264283   -0.090542    0.614284    0.068364    0.011252
O    -2.056523   -1.375418    0.058119   -0.068749   -0.066208    0.003580
O     0.388745    2.482627   -0.194385   -0.010631   -0.013853    0.000891
H     2.430310   -1.453563    0.187215    0.749597    0.868322   -0.051594
H    -1.701622    0.892179   -0.120499   -0.511060   -0.874321    0.059001
H     2.538036    0.872672   -0.002381   -0.264394    0.046096   -0.011735
11
* Frequency(22) 1144.6988
C     1.574476    0.414721    0.008675   -0.294728    0.140807   -0.019708
C     1.402184   -0.974342    0.119073   -0.011774   -0.152753    0.012324
N     0.264216   -1.644498    0.143521    0.315796   -0.203920    0.025537
C    -0.921807   -0.853178    0.045369   -0.300657    0.770382   -0.072057
N    -0.767225    0.481515   -0.061741   -0.229376   -0.416499    0.028141
C     0.467363    1.256834   -0.091768    0.614284    0.068364    0.011252
O    -2.049031   -1.368203    0.057729   -0.068749   -0.066208    0.003580
O     0.389904    2.484137   -0.194482   -0.010631   -0.013853    0.000891
H     2.348624   -1.548188    0.192838    0.749597    0.868322   -0.051594
H    -1.645930    0.987457   -0.126929   -0.511060   -0.874321    0.059001
H     2.566848    0.867649   -0.001102   -0.264394    0.046096   -0.011735
11
* Frequency(22) 1144.6988
C     1.608433    0.398498    0.010946   -0.294728    0.140807   -0.019708
C     1.403540   -0.956742    0.117653   -0.011774   -0.152753    0.012324
N     0.227831   -1.621003    0.140579    0.315796   -0.203920    0.025537
C    -0.887166   -0.941939    0.053671   -0.300657    0.770382   -0.072057
N    -0.740797    0.529503   -0.064983   -0.229376   -0.416499    0.028141
C     0.396587    1.248957   -0.093064    0.614284    0.068364    0.011252
O    -2.041110   -1.360575    0.057317   -0.068749   -0.066208    0.003580
O     0.391129    2.485733   -0.194584   -0.010631   -0.013853    0.000891
H     2.262258   -1.648232    0.198782    0.749597    0.868322   -0.051594
H    -1.587048    1.088193   -0.133727   -0.511060   -0.874321    0.059001
H     2.597311    0.862338    0.000250   -0.264394    0.046096   -0.011735
11
* Frequency(22) 1144.6988
C     1.640551    0.383153    0.013094   -0.294728    0.140807   -0.019708
C     1.404823   -0.940096    0.116310   -0.011774   -0.152753    0.012324
N     0.193418   -1.598781    0.137796    0.315796   -0.203920    0.025537
C    -0.854403   -1.025890    0.061523   -0.300657    0.770382   -0.072057
N    -0.715801    0.574890   -0.068050   -0.229376   -0.416499    0.028141
C     0.329647    1.241507   -0.094290    0.614284    0.068364    0.011252
O    -2.033619   -1.353360    0.056927   -0.068749   -0.066208    0.003580
O     0.392287    2.487242   -0.194681   -0.010631   -0.013853    0.000891
H     2.180572   -1.742857    0.204405    0.749597    0.868322   -0.051594
H    -1.531356    1.183471   -0.140156   -0.511060   -0.874321    0.059001
H     2.626122    0.857315    0.001529   -0.264394    0.046096   -0.011735
11
* Frequency(22) 1144.6988
C     1.667348    0.370351    0.014885   -0.294728    0.140807   -0.019708
C     1.405894   -0.926207    0.115190   -0.011774   -0.152753    0.012324
N     0.164705   -1.580241    0.135474    0.315796   -0.203920    0.025537
C    -0.827066   -1.095934    0.068074   -0.300657    0.770382   -0.072057
N    -0.694946    0.612759   -0.070608   -0.229376   -0.416499    0.028141
C     0.273795    1.235291   -0.095313    0.614284    0.068364    0.011252
O    -2.027368   -1.347340    0.056601   -0.068749   -0.066208    0.003580
O     0.393254    2.488502   -0.194762   -0.010631   -0.013853    0.000891
H     2.112417   -1.821806    0.209096    0.749597    0.868322   -0.051594
H    -1.484889    1.262965   -0.145521   -0.511060   -0.874321    0.059001
H     2.650162    0.853124    0.002596   -0.264394    0.046096   -0.011735
11
* Frequency(22) 1144.6988
C     1.685921    0.361478    0.016127   -0.294728    0.140807   -0.019708
C     1.406636   -0.916581    0.114413   -0.011774   -0.152753    0.012324
N     0.144805   -1.567390    0.133865    0.315796   -0.203920    0.025537
C    -0.808120   -1.144482    0.072615   -0.300657    0.770382   -0.072057
N    -0.680492    0.639006   -0.072381   -0.229376   -0.416499    0.028141
C     0.235084    1.230983   -0.096022    0.614284    0.068364    0.011252
O    -2.023035   -1.343168    0.056376   -0.068749   -0.066208    0.003580
O     0.393924    2.489375   -0.194819   -0.010631   -0.013853    0.000891
H     2.065180   -1.876525    0.212347    0.749597    0.868322   -0.051594
H    -1.452683    1.318063   -0.149239   -0.511060   -0.874321    0.059001
H     2.666823    0.850219    0.003335   -0.264394    0.046096   -0.011735
11
* Frequency(22) 1144.6988
C     1.694257    0.357495    0.016685   -0.294728    0.140807   -0.019708
C     1.406969   -0.912261    0.114065   -0.011774   -0.152753    0.012324
N     0.135873   -1.561622    0.133142    0.315796   -0.203920    0.025537
C    -0.799616   -1.166271    0.074653   -0.300657    0.770382   -0.072057
N    -0.674004    0.650786   -0.073177   -0.229376   -0.416499    0.028141
C     0.217710    1.229049   -0.096341    0.614284    0.068364    0.011252
O    -2.021091   -1.341295    0.056274   -0.068749   -0.066208    0.003580
O     0.394224    2.489767   -0.194844   -0.010631   -0.013853    0.000891
H     2.043978   -1.901085    0.213806    0.749597    0.868322   -0.051594
H    -1.438229    1.342792   -0.150907   -0.511060   -0.874321    0.059001
H     2.674301    0.848915    0.003667   -0.264394    0.046096   -0.011735
11
* Frequency(22) 1144.6988
C     1.691453    0.358835    0.016497   -0.294728    0.140807   -0.019708
C     1.406857   -0.913714    0.114182   -0.011774   -0.152753    0.012324
N     0.138878   -1.563563    0.133385    0.315796   -0.203920    0.025537
C    -0.802476   -1.158941    0.073968   -0.300657    0.770382   -0.072057
N    -0.676186    0.646823   -0.072910   -0.229376   -0.416499    0.028141
C     0.223555    1.229700   -0.096234    0.614284    0.068364    0.011252
O    -2.021745   -1.341925    0.056308   -0.068749   -0.066208    0.003580
O     0.394123    2.489635   -0.194835   -0.010631   -0.013853    0.000891
H     2.051110   -1.892823    0.213315    0.749597    0.868322   -0.051594
H    -1.443091    1.334473   -0.150346   -0.511060   -0.874321    0.059001
H     2.671785    0.849354    0.003556   -0.264394    0.046096   -0.011735
11
* Frequency(22) 1144.6988
C     1.677812    0.365352    0.015585   -0.294728    0.140807   -0.019708
C     1.406312   -0.920784    0.114752   -0.011774   -0.152753    0.012324
N     0.153493   -1.573000    0.134567    0.315796   -0.203920    0.025537
C    -0.816391   -1.123287    0.070633   -0.300657    0.770382   -0.072057
N    -0.686802    0.627547   -0.071607   -0.229376   -0.416499    0.028141
C     0.251985    1.232864   -0.095713    0.614284    0.068364    0.011252
O    -2.024927   -1.344990    0.056474   -0.068749   -0.066208    0.003580
O     0.393631    2.488994   -0.194794   -0.010631   -0.013853    0.000891
H     2.085803   -1.852636    0.210927    0.749597    0.868322   -0.051594
H    -1.466744    1.294008   -0.147615   -0.511060   -0.874321    0.059001
H     2.659549    0.851487    0.003013   -0.264394    0.046096   -0.011735
11
* Frequency(22) 1144.6988
C     1.654813    0.376339    0.014047   -0.294728    0.140807   -0.019708
C     1.405393   -0.932704    0.115714   -0.011774   -0.152753    0.012324
N     0.178136   -1.588913    0.136560    0.315796   -0.203920    0.025537
C    -0.839853   -1.063171    0.065010   -0.300657    0.770382   -0.072057
N    -0.704701    0.595046   -0.069411   -0.229376   -0.416499    0.028141
C     0.299920    1.238199   -0.094835    0.614284    0.068364    0.011252
O    -2.030292   -1.350156    0.056753   -0.068749   -0.066208    0.003580
O     0.392802    2.487913   -0.194725   -0.010631   -0.013853    0.000891
H     2.144297   -1.784877    0.206901    0.749597    0.868322   -0.051594
H    -1.506624    1.225781   -0.143011   -0.511060   -0.874321    0.059001
H     2.638917    0.855084    0.002097   -0.264394    0.046096   -0.011735
11
* Frequency(22) 1144.6988
C     1.624949    0.390607    0.012050   -0.294728    0.140807   -0.019708
C     1.404200   -0.948182    0.116963   -0.011774   -0.152753    0.012324
N     0.210135   -1.609576    0.139148    0.315796   -0.203920    0.025537
C    -0.870318   -0.985108    0.057708   -0.300657    0.770382   -0.072057
N    -0.727944    0.552842   -0.066560   -0.229376   -0.416499    0.028141
C     0.362165    1.245126   -0.093695    0.614284    0.068364    0.011252
O    -2.037258   -1.356865    0.057116   -0.068749   -0.066208    0.003580
O     0.391724    2.486509   -0.194634   -0.010631   -0.013853    0.000891
H     2.220253   -1.696890    0.201673    0.749597    0.868322   -0.051594
H    -1.558410    1.137187   -0.137033   -0.511060   -0.874321    0.059001
H     2.612126    0.859755    0.000908   -0.264394    0.046096   -0.011735
11
* Frequency(22) 1144.6988
C     1.591454    0.406609    0.009810   -0.294728    0.140807   -0.019708
C     1.402862   -0.965542    0.118363   -0.011774   -0.152753    0.012324
N     0.246024   -1.632751    0.142050    0.315796   -0.203920    0.025537
C    -0.904486   -0.897558    0.049520   -0.300657    0.770382   -0.072057
N    -0.754011    0.505509   -0.063362   -0.229376   -0.416499    0.028141
C     0.431975    1.252895   -0.092416    0.614284    0.068364    0.011252
O    -2.045071   -1.364389    0.057523   -0.068749   -0.066208    0.003580
O     0.390516    2.484935   -0.194533   -0.010631   -0.013853    0.000891
H     2.305441   -1.598210    0.195810    0.749597    0.868322   -0.051594
H    -1.616489    1.037825   -0.130328   -0.511060   -0.874321    0.059001
H     2.582079    0.864994   -0.000426   -0.264394    0.046096   -0.011735
