11
* (null), Energy   -1000.0000000
C     1.591454    0.406609    0.009810   -0.015854    0.040768    0.459697
C     1.402862   -0.965542    0.118363    0.000585   -0.022409   -0.336169
N     0.246024   -1.632751    0.142050   -0.018299    0.046385    0.556579
C    -0.904486   -0.897558    0.049520    0.038015   -0.106699   -1.307507
N    -0.754011    0.505509   -0.063362   -0.011233    0.043624    0.553419
C     0.431975    1.252895   -0.092416    0.021686   -0.065375   -0.759080
O    -2.045071   -1.364389    0.057523   -0.004002    0.029365    0.343833
O     0.390516    2.484935   -0.194533   -0.004929    0.012260    0.207696
H     2.305441   -1.598210    0.195810   -0.003742   -0.001702   -0.119439
H    -1.616489    1.037825   -0.130328    0.023394   -0.062984   -0.733616
H     2.582079    0.864994   -0.000426    0.003041   -0.015138   -0.172320
11
* Frequency(17)  813.8183
C     1.589653    0.411242    0.062053   -0.015854    0.040768    0.459697
C     1.402928   -0.968088    0.080159    0.000585   -0.022409   -0.336169
N     0.243944   -1.627479    0.205302   -0.018299    0.046385    0.556579
C    -0.900166   -0.909684   -0.099072    0.038015   -0.106699   -1.307507
N    -0.755288    0.510467   -0.000469   -0.011233    0.043624    0.553419
C     0.434440    1.245466   -0.178681    0.021686   -0.065375   -0.759080
O    -2.045526   -1.361052    0.096598   -0.004002    0.029365    0.343833
O     0.389956    2.486328   -0.170930   -0.004929    0.012260    0.207696
H     2.305016   -1.598403    0.182236   -0.003742   -0.001702   -0.119439
H    -1.613830    1.030667   -0.213699    0.023394   -0.062984   -0.733616
H     2.582425    0.863273   -0.020009    0.003041   -0.015138   -0.172320
11
* Frequency(17)  813.8183
C     1.588046    0.415373    0.108634   -0.015854    0.040768    0.459697
C     1.402988   -0.970359    0.046096    0.000585   -0.022409   -0.336169
N     0.242090   -1.622779    0.261700   -0.018299    0.046385    0.556579
C    -0.896314   -0.920496   -0.231561    0.038015   -0.106699   -1.307507
N    -0.756426    0.514887    0.055609   -0.011233    0.043624    0.553419
C     0.436637    1.238841   -0.255599    0.021686   -0.065375   -0.759080
O    -2.045931   -1.358076    0.131438   -0.004002    0.029365    0.343833
O     0.389456    2.487570   -0.149884   -0.004929    0.012260    0.207696
H     2.304637   -1.598576    0.170134   -0.003742   -0.001702   -0.119439
H    -1.611460    1.024285   -0.288036    0.023394   -0.062984   -0.733616
H     2.582733    0.861739   -0.037470    0.003041   -0.015138   -0.172320
11
* Frequency(17)  813.8183
C     1.586809    0.418555    0.144506   -0.015854    0.040768    0.459697
C     1.403033   -0.972108    0.019863    0.000585   -0.022409   -0.336169
N     0.240662   -1.619159    0.305132   -0.018299    0.046385    0.556579
C    -0.893348   -0.928822   -0.333591    0.038015   -0.106699   -1.307507
N    -0.757303    0.518291    0.098794   -0.011233    0.043624    0.553419
C     0.438329    1.233740   -0.314833    0.021686   -0.065375   -0.759080
O    -2.046243   -1.355785    0.158269   -0.004002    0.029365    0.343833
O     0.389072    2.488527   -0.133676   -0.004929    0.012260    0.207696
H     2.304345   -1.598709    0.160813   -0.003742   -0.001702   -0.119439
H    -1.609634    1.019370   -0.345283    0.023394   -0.062984   -0.733616
H     2.582970    0.860558   -0.050917    0.003041   -0.015138   -0.172320
11
* Frequency(17)  813.8183
C     1.586075    0.420441    0.165781   -0.015854    0.040768    0.459697
C     1.403060   -0.973145    0.004304    0.000585   -0.022409   -0.336169
N     0.239815   -1.617013    0.330891   -0.018299    0.046385    0.556579
C    -0.891588   -0.933760   -0.394105    0.038015   -0.106699   -1.307507
N    -0.757822    0.520310    0.124408   -0.011233    0.043624    0.553419
C     0.439333    1.230714   -0.349964    0.021686   -0.065375   -0.759080
O    -2.046429   -1.354426    0.174182   -0.004002    0.029365    0.343833
O     0.388844    2.489095   -0.124064   -0.004929    0.012260    0.207696
H     2.304171   -1.598787    0.155286   -0.003742   -0.001702   -0.119439
H    -1.608552    1.016455   -0.379236    0.023394   -0.062984   -0.733616
H     2.583111    0.859857   -0.058892    0.003041   -0.015138   -0.172320
11
* Frequency(17)  813.8183
C     1.585924    0.420829    0.170155   -0.015854    0.040768    0.459697
C     1.403066   -0.973358    0.001106    0.000585   -0.022409   -0.336169
N     0.239641   -1.616571    0.336187   -0.018299    0.046385    0.556579
C    -0.891227   -0.934775   -0.406545    0.038015   -0.106699   -1.307507
N    -0.757929    0.520726    0.129673   -0.011233    0.043624    0.553419
C     0.439539    1.230092   -0.357187    0.021686   -0.065375   -0.759080
O    -2.046467   -1.354146    0.177454   -0.004002    0.029365    0.343833
O     0.388797    2.489211   -0.122088   -0.004929    0.012260    0.207696
H     2.304136   -1.598804    0.154149   -0.003742   -0.001702   -0.119439
H    -1.608329    1.015856   -0.386216    0.023394   -0.062984   -0.733616
H     2.583140    0.859713   -0.060532    0.003041   -0.015138   -0.172320
11
* Frequency(17)  813.8183
C     1.586373    0.419676    0.157153   -0.015854    0.040768    0.459697
C     1.403049   -0.972724    0.010614    0.000585   -0.022409   -0.336169
N     0.240158   -1.617883    0.320445   -0.018299    0.046385    0.556579
C    -0.892302   -0.931757   -0.369563    0.038015   -0.106699   -1.307507
N    -0.757612    0.519492    0.114020   -0.011233    0.043624    0.553419
C     0.438926    1.231941   -0.335717    0.021686   -0.065375   -0.759080
O    -2.046353   -1.354977    0.167729   -0.004002    0.029365    0.343833
O     0.388936    2.488865   -0.127962   -0.004929    0.012260    0.207696
H     2.304242   -1.598755    0.157527   -0.003742   -0.001702   -0.119439
H    -1.608991    1.017637   -0.365467    0.023394   -0.062984   -0.733616
H     2.583054    0.860142   -0.055658    0.003041   -0.015138   -0.172320
11
* Frequency(17)  813.8183
C     1.587372    0.417107    0.128184   -0.015854    0.040768    0.459697
C     1.403013   -0.971312    0.031799    0.000585   -0.022409   -0.336169
N     0.241312   -1.620806    0.285371   -0.018299    0.046385    0.556579
C    -0.894698   -0.925034   -0.287168    0.038015   -0.106699   -1.307507
N    -0.756904    0.516743    0.079145   -0.011233    0.043624    0.553419
C     0.437559    1.236061   -0.287882    0.021686   -0.065375   -0.759080
O    -2.046101   -1.356827    0.146061   -0.004002    0.029365    0.343833
O     0.389247    2.488092   -0.141051   -0.004929    0.012260    0.207696
H     2.304478   -1.598648    0.165054   -0.003742   -0.001702   -0.119439
H    -1.610465    1.021606   -0.319236    0.023394   -0.062984   -0.733616
H     2.582862    0.861096   -0.044799    0.003041   -0.015138   -0.172320
11
* Frequency(17)  813.8183
C     1.588813    0.413400    0.086388   -0.015854    0.040768    0.459697
C     1.402959   -0.969275    0.062364    0.000585   -0.022409   -0.336169
N     0.242976   -1.625024    0.234765   -0.018299    0.046385    0.556579
C    -0.898154   -0.915332   -0.168287    0.038015   -0.106699   -1.307507
N    -0.755882    0.512776    0.028828   -0.011233    0.043624    0.553419
C     0.435588    1.242005   -0.218865    0.021686   -0.065375   -0.759080
O    -2.045737   -1.359497    0.114799   -0.004002    0.029365    0.343833
O     0.389695    2.486977   -0.159935   -0.004929    0.012260    0.207696
H     2.304818   -1.598494    0.175914   -0.003742   -0.001702   -0.119439
H    -1.612592    1.027333   -0.252535    0.023394   -0.062984   -0.733616
H     2.582586    0.862472   -0.029131    0.003041   -0.015138   -0.172320
11
* Frequency(17)  813.8183
C     1.590541    0.408958    0.036293   -0.015854    0.040768    0.459697
C     1.402896   -0.966833    0.098997    0.000585   -0.022409   -0.336169
N     0.244970   -1.630078    0.174113   -0.018299    0.046385    0.556579
C    -0.902297   -0.903705   -0.025803    0.038015   -0.106699   -1.307507
N    -0.754658    0.508022   -0.031480   -0.011233    0.043624    0.553419
C     0.433224    1.249129   -0.136145    0.021686   -0.065375   -0.759080
O    -2.045301   -1.362697    0.077331   -0.004002    0.029365    0.343833
O     0.390232    2.485641   -0.182568   -0.004929    0.012260    0.207696
H     2.305225   -1.598308    0.188929   -0.003742   -0.001702   -0.119439
H    -1.615141    1.034196   -0.172590    0.023394   -0.062984   -0.733616
H     2.582254    0.864122   -0.010353    0.003041   -0.015138   -0.172320
11
* Frequency(17)  813.8183
C     1.592368    0.404261   -0.016672   -0.015854    0.040768    0.459697
C     1.402828   -0.964251    0.137729    0.000585   -0.022409   -0.336169
N     0.247078   -1.635423    0.109986   -0.018299    0.046385    0.556579
C    -0.906676   -0.891412    0.124843    0.038015   -0.106699   -1.307507
N    -0.753364    0.502996   -0.095243   -0.011233    0.043624    0.553419
C     0.430726    1.256661   -0.048687    0.021686   -0.065375   -0.759080
O    -2.044840   -1.366081    0.037715   -0.004002    0.029365    0.343833
O     0.390800    2.484229   -0.206498   -0.004929    0.012260    0.207696
H     2.305657   -1.598112    0.202691   -0.003742   -0.001702   -0.119439
H    -1.617837    1.041453   -0.088066    0.023394   -0.062984   -0.733616
H     2.581904    0.865866    0.009501    0.003041   -0.015138   -0.172320
11
* Frequency(17)  813.8183
C     1.594095    0.399818   -0.066767   -0.015854    0.040768    0.459697
C     1.402765   -0.961809    0.174363    0.000585   -0.022409   -0.336169
N     0.249072   -1.640478    0.049334   -0.018299    0.046385    0.556579
C    -0.910819   -0.879784    0.267326    0.038015   -0.106699   -1.307507
N    -0.752140    0.498242   -0.155551   -0.011233    0.043624    0.553419
C     0.428363    1.263786    0.034033    0.021686   -0.065375   -0.759080
O    -2.044404   -1.369281    0.000247   -0.004002    0.029365    0.343833
O     0.391337    2.482892   -0.229131   -0.004929    0.012260    0.207696
H     2.306064   -1.597927    0.215706   -0.003742   -0.001702   -0.119439
H    -1.620386    1.048317   -0.008121    0.023394   -0.062984   -0.733616
H     2.581573    0.867515    0.028279    0.003041   -0.015138   -0.172320
11
* Frequency(17)  813.8183
C     1.595537    0.396111   -0.108563   -0.015854    0.040768    0.459697
C     1.402711   -0.959771    0.204928    0.000585   -0.022409   -0.336169
N     0.250736   -1.644695   -0.001271   -0.018299    0.046385    0.556579
C    -0.914275   -0.870083    0.386207    0.038015   -0.106699   -1.307507
N    -0.751119    0.494276   -0.205869   -0.011233    0.043624    0.553419
C     0.426391    1.269730    0.103050    0.021686   -0.065375   -0.759080
O    -2.044040   -1.371951   -0.031015   -0.004002    0.029365    0.343833
O     0.391785    2.481778   -0.248016   -0.004929    0.012260    0.207696
H     2.306404   -1.597772    0.226566   -0.003742   -0.001702   -0.119439
H    -1.622513    1.054043    0.058581    0.023394   -0.062984   -0.733616
H     2.581296    0.868892    0.043947    0.003041   -0.015138   -0.172320
11
* Frequency(17)  813.8183
C     1.596536    0.393542   -0.137532   -0.015854    0.040768    0.459697
C     1.402675   -0.958359    0.226112    0.000585   -0.022409   -0.336169
N     0.251889   -1.647618   -0.036345   -0.018299    0.046385    0.556579
C    -0.916671   -0.863359    0.468603    0.038015   -0.106699   -1.307507
N    -0.750411    0.491527   -0.240744   -0.011233    0.043624    0.553419
C     0.425024    1.273849    0.150885    0.021686   -0.065375   -0.759080
O    -2.043788   -1.373801   -0.052683   -0.004002    0.029365    0.343833
O     0.392096    2.481005   -0.261104   -0.004929    0.012260    0.207696
H     2.306640   -1.597665    0.234093   -0.003742   -0.001702   -0.119439
H    -1.623987    1.058013    0.104811    0.023394   -0.062984   -0.733616
H     2.581105    0.869846    0.054806    0.003041   -0.015138   -0.172320
11
* Frequency(17)  813.8183
C     1.596984    0.392389   -0.150534   -0.015854    0.040768    0.459697
C     1.402658   -0.957725    0.235621    0.000585   -0.022409   -0.336169
N     0.252407   -1.648930   -0.052088   -0.018299    0.046385    0.556579
C    -0.917746   -0.860341    0.505584    0.038015   -0.106699   -1.307507
N    -0.750093    0.490293   -0.256397   -0.011233    0.043624    0.553419
C     0.424411    1.275698    0.172355    0.021686   -0.065375   -0.759080
O    -2.043675   -1.374632   -0.062408   -0.004002    0.029365    0.343833
O     0.392235    2.480658   -0.266978   -0.004929    0.012260    0.207696
H     2.306746   -1.597616    0.237471   -0.003742   -0.001702   -0.119439
H    -1.624649    1.059794    0.125561    0.023394   -0.062984   -0.733616
H     2.581019    0.870274    0.059680    0.003041   -0.015138   -0.172320
11
* Frequency(17)  813.8183
C     1.596833    0.392777   -0.146160   -0.015854    0.040768    0.459697
C     1.402664   -0.957939    0.232422    0.000585   -0.022409   -0.336169
N     0.252233   -1.648489   -0.046792   -0.018299    0.046385    0.556579
C    -0.917385   -0.861357    0.493144    0.038015   -0.106699   -1.307507
N    -0.750200    0.490708   -0.251131   -0.011233    0.043624    0.553419
C     0.424617    1.275076    0.165132    0.021686   -0.065375   -0.759080
O    -2.043713   -1.374352   -0.059136   -0.004002    0.029365    0.343833
O     0.392189    2.480775   -0.265002   -0.004929    0.012260    0.207696
H     2.306710   -1.597633    0.236334   -0.003742   -0.001702   -0.119439
H    -1.624426    1.059195    0.118581    0.023394   -0.062984   -0.733616
H     2.581048    0.870130    0.058040    0.003041   -0.015138   -0.172320
11
* Frequency(17)  813.8183
C     1.596100    0.394664   -0.124885   -0.015854    0.040768    0.459697
C     1.402691   -0.958976    0.216864    0.000585   -0.022409   -0.336169
N     0.251386   -1.646342   -0.021033   -0.018299    0.046385    0.556579
C    -0.915625   -0.866295    0.432630    0.038015   -0.106699   -1.307507
N    -0.750720    0.492727   -0.225518   -0.011233    0.043624    0.553419
C     0.425621    1.272051    0.130001    0.021686   -0.065375   -0.759080
O    -2.043898   -1.372993   -0.043223   -0.004002    0.029365    0.343833
O     0.391960    2.481342   -0.255390   -0.004929    0.012260    0.207696
H     2.306537   -1.597711    0.230807   -0.003742   -0.001702   -0.119439
H    -1.623343    1.056280    0.084628    0.023394   -0.062984   -0.733616
H     2.581188    0.869429    0.050065    0.003041   -0.015138   -0.172320
11
* Frequency(17)  813.8183
C     1.594862    0.397845   -0.089013   -0.015854    0.040768    0.459697
C     1.402736   -0.960724    0.190631    0.000585   -0.022409   -0.336169
N     0.249958   -1.642722    0.022399   -0.018299    0.046385    0.556579
C    -0.912659   -0.874621    0.330600    0.038015   -0.106699   -1.307507
N    -0.751596    0.496131   -0.182333   -0.011233    0.043624    0.553419
C     0.427313    1.266949    0.070767    0.021686   -0.065375   -0.759080
O    -2.044211   -1.370702   -0.016392   -0.004002    0.029365    0.343833
O     0.391576    2.482299   -0.239182   -0.004929    0.012260    0.207696
H     2.306245   -1.597844    0.221486   -0.003742   -0.001702   -0.119439
H    -1.621518    1.051365    0.027381    0.023394   -0.062984   -0.733616
H     2.581426    0.868248    0.036618    0.003041   -0.015138   -0.172320
11
* Frequency(17)  813.8183
C     1.593256    0.401976   -0.042432   -0.015854    0.040768    0.459697
C     1.402796   -0.962995    0.156567    0.000585   -0.022409   -0.336169
N     0.248104   -1.638022    0.078797   -0.018299    0.046385    0.556579
C    -0.908807   -0.885433    0.198111    0.038015   -0.106699   -1.307507
N    -0.752735    0.500551   -0.126255   -0.011233    0.043624    0.553419
C     0.429511    1.260325   -0.006150    0.021686   -0.065375   -0.759080
O    -2.044616   -1.367726    0.018448   -0.004002    0.029365    0.343833
O     0.391076    2.483541   -0.218137   -0.004929    0.012260    0.207696
H     2.305866   -1.598017    0.209384   -0.003742   -0.001702   -0.119439
H    -1.619147    1.044983   -0.046956    0.023394   -0.062984   -0.733616
H     2.581734    0.866714    0.019157    0.003041   -0.015138   -0.172320
11
* Frequency(17)  813.8183
C     1.591454    0.406609    0.009810   -0.015854    0.040768    0.459697
C     1.402862   -0.965542    0.118363    0.000585   -0.022409   -0.336169
N     0.246024   -1.632751    0.142050   -0.018299    0.046385    0.556579
C    -0.904486   -0.897558    0.049520    0.038015   -0.106699   -1.307507
N    -0.754011    0.505509   -0.063362   -0.011233    0.043624    0.553419
C     0.431975    1.252895   -0.092416    0.021686   -0.065375   -0.759080
O    -2.045071   -1.364389    0.057523   -0.004002    0.029365    0.343833
O     0.390516    2.484935   -0.194533   -0.004929    0.012260    0.207696
H     2.305441   -1.598210    0.195810   -0.003742   -0.001702   -0.119439
H    -1.616489    1.037825   -0.130328    0.023394   -0.062984   -0.733616
H     2.582079    0.864994   -0.000426    0.003041   -0.015138   -0.172320
