11
* (null), Energy   -1000.0000000
C     1.357708    0.575724   -0.019982   -0.108833    0.294198   -0.027208
C     1.169529   -0.796569    0.088269   -0.017175   -0.048202    0.003474
N     0.012816   -1.463992    0.112098   -0.235463   -0.002037   -0.006240
C    -1.137586   -0.728374    0.019659    1.291236    0.314738    0.008842
N    -0.987337    0.674496   -0.092673   -0.161432    0.051907   -0.008780
C     0.198487    1.422060   -0.121503    0.226655   -0.975554    0.087029
O    -2.278352   -1.195100    0.027552   -0.672432   -0.269293    0.004237
O     0.157268    2.653978   -0.224886   -0.034569    0.540099   -0.045745
H     2.071990   -1.429182    0.165269    0.007346    0.085223   -0.006795
H    -1.849786    1.206815   -0.161518    0.011003    0.234412   -0.019347
H     2.348454    1.034025   -0.030636    0.133154   -0.368018    0.034109
11
* Frequency(29) 1766.0115
C     1.345339    0.609158   -0.023074   -0.108833    0.294198   -0.027208
C     1.167577   -0.802047    0.088664   -0.017175   -0.048202    0.003474
N    -0.013943   -1.464224    0.111389   -0.235463   -0.002037   -0.006240
C    -0.990844   -0.692606    0.020664    1.291236    0.314738    0.008842
N    -1.005683    0.680395   -0.093671   -0.161432    0.051907   -0.008780
C     0.224245    1.311194   -0.111612    0.226655   -0.975554    0.087029
O    -2.354771   -1.225704    0.028033   -0.672432   -0.269293    0.004237
O     0.153339    2.715357   -0.230084   -0.034569    0.540099   -0.045745
H     2.072825   -1.419497    0.164497    0.007346    0.085223   -0.006795
H    -1.848535    1.233454   -0.163717    0.011003    0.234412   -0.019347
H     2.363586    0.992201   -0.026760    0.133154   -0.368018    0.034109
11
* Frequency(29) 1766.0115
C     1.334311    0.638969   -0.025831   -0.108833    0.294198   -0.027208
C     1.165837   -0.806932    0.089016   -0.017175   -0.048202    0.003474
N    -0.037803   -1.464430    0.110756   -0.235463   -0.002037   -0.006240
C    -0.860003   -0.660713    0.021560    1.291236    0.314738    0.008842
N    -1.022041    0.685655   -0.094560   -0.161432    0.051907   -0.008780
C     0.247212    1.212341   -0.102794    0.226655   -0.975554    0.087029
O    -2.422908   -1.252991    0.028463   -0.672432   -0.269293    0.004237
O     0.149836    2.770086   -0.234720   -0.034569    0.540099   -0.045745
H     2.073570   -1.410861    0.163809    0.007346    0.085223   -0.006795
H    -1.847420    1.257207   -0.165678    0.011003    0.234412   -0.019347
H     2.377079    0.954910   -0.023304    0.133154   -0.368018    0.034109
11
* Frequency(29) 1766.0115
C     1.325819    0.661927   -0.027954   -0.108833    0.294198   -0.027208
C     1.164496   -0.810693    0.089287   -0.017175   -0.048202    0.003474
N    -0.056177   -1.464589    0.110269   -0.235463   -0.002037   -0.006240
C    -0.759243   -0.636153    0.022250    1.291236    0.314738    0.008842
N    -1.034638    0.689705   -0.095246   -0.161432    0.051907   -0.008780
C     0.264898    1.136215   -0.096002    0.226655   -0.975554    0.087029
O    -2.475380   -1.274005    0.028793   -0.672432   -0.269293    0.004237
O     0.147138    2.812232   -0.238289   -0.034569    0.540099   -0.045745
H     2.074143   -1.404211    0.163279    0.007346    0.085223   -0.006795
H    -1.846561    1.275499   -0.167187    0.011003    0.234412   -0.019347
H     2.387469    0.926192   -0.020642    0.133154   -0.368018    0.034109
11
* Frequency(29) 1766.0115
C     1.320782    0.675543   -0.029213   -0.108833    0.294198   -0.027208
C     1.163702   -0.812924    0.089448   -0.017175   -0.048202    0.003474
N    -0.067074   -1.464683    0.109981   -0.235463   -0.002037   -0.006240
C    -0.699482   -0.621587    0.022659    1.291236    0.314738    0.008842
N    -1.042110    0.692108   -0.095652   -0.161432    0.051907   -0.008780
C     0.275388    1.091065   -0.091974    0.226655   -0.975554    0.087029
O    -2.506502   -1.286469    0.028990   -0.672432   -0.269293    0.004237
O     0.145539    2.837228   -0.240406   -0.034569    0.540099   -0.045745
H     2.074483   -1.400267    0.162964    0.007346    0.085223   -0.006795
H    -1.846052    1.286348   -0.168083    0.011003    0.234412   -0.019347
H     2.393632    0.909160   -0.019063    0.133154   -0.368018    0.034109
11
* Frequency(29) 1766.0115
C     1.319746    0.678342   -0.029472   -0.108833    0.294198   -0.027208
C     1.163538   -0.813382    0.089481   -0.017175   -0.048202    0.003474
N    -0.069315   -1.464703    0.109921   -0.235463   -0.002037   -0.006240
C    -0.687197   -0.618592    0.022743    1.291236    0.314738    0.008842
N    -1.043646    0.692602   -0.095735   -0.161432    0.051907   -0.008780
C     0.277545    1.081783   -0.091146    0.226655   -0.975554    0.087029
O    -2.512900   -1.289031    0.029030   -0.672432   -0.269293    0.004237
O     0.145210    2.842367   -0.240842   -0.034569    0.540099   -0.045745
H     2.074553   -1.399456    0.162899    0.007346    0.085223   -0.006795
H    -1.845948    1.288578   -0.168267    0.011003    0.234412   -0.019347
H     2.394899    0.905658   -0.018739    0.133154   -0.368018    0.034109
11
* Frequency(29) 1766.0115
C     1.322824    0.670021   -0.028702   -0.108833    0.294198   -0.027208
C     1.164024   -0.812019    0.089383   -0.017175   -0.048202    0.003474
N    -0.062655   -1.464645    0.110098   -0.235463   -0.002037   -0.006240
C    -0.723718   -0.627494    0.022493    1.291236    0.314738    0.008842
N    -1.039080    0.691134   -0.095487   -0.161432    0.051907   -0.008780
C     0.271134    1.109375   -0.093608    0.226655   -0.975554    0.087029
O    -2.493881   -1.281414    0.028910   -0.672432   -0.269293    0.004237
O     0.146187    2.827091   -0.239548   -0.034569    0.540099   -0.045745
H     2.074345   -1.401866    0.163092    0.007346    0.085223   -0.006795
H    -1.846259    1.281948   -0.167720    0.011003    0.234412   -0.019347
H     2.391133    0.916067   -0.019704    0.133154   -0.368018    0.034109
11
* Frequency(29) 1766.0115
C     1.329683    0.651481   -0.026988   -0.108833    0.294198   -0.027208
C     1.165106   -0.808981    0.089164   -0.017175   -0.048202    0.003474
N    -0.047817   -1.464517    0.110491   -0.235463   -0.002037   -0.006240
C    -0.805088   -0.647328    0.021936    1.291236    0.314738    0.008842
N    -1.028907    0.687863   -0.094934   -0.161432    0.051907   -0.008780
C     0.256851    1.170852   -0.099092    0.226655   -0.975554    0.087029
O    -2.451506   -1.264444    0.028643   -0.672432   -0.269293    0.004237
O     0.148366    2.793055   -0.236665   -0.034569    0.540099   -0.045745
H     2.073882   -1.407237    0.163520    0.007346    0.085223   -0.006795
H    -1.846952    1.267176   -0.166500    0.011003    0.234412   -0.019347
H     2.382742    0.939259   -0.021853    0.133154   -0.368018    0.034109
11
* Frequency(29) 1766.0115
C     1.339578    0.624732   -0.024514   -0.108833    0.294198   -0.027208
C     1.166668   -0.804599    0.088848   -0.017175   -0.048202    0.003474
N    -0.026408   -1.464332    0.111058   -0.235463   -0.002037   -0.006240
C    -0.922490   -0.675945    0.021132    1.291236    0.314738    0.008842
N    -1.014229    0.683143   -0.094135   -0.161432    0.051907   -0.008780
C     0.236243    1.259551   -0.107005    0.226655   -0.975554    0.087029
O    -2.390367   -1.239960    0.028258   -0.672432   -0.269293    0.004237
O     0.151509    2.743949   -0.232506   -0.034569    0.540099   -0.045745
H     2.073214   -1.414985    0.164138    0.007346    0.085223   -0.006795
H    -1.847953    1.245863   -0.164741    0.011003    0.234412   -0.019347
H     2.370635    0.972720   -0.024954    0.133154   -0.368018    0.034109
11
* Frequency(29) 1766.0115
C     1.351438    0.592672   -0.021549   -0.108833    0.294198   -0.027208
C     1.168539   -0.799346    0.088469   -0.017175   -0.048202    0.003474
N    -0.000749   -1.464110    0.111738   -0.235463   -0.002037   -0.006240
C    -1.063200   -0.710243    0.020168    1.291236    0.314738    0.008842
N    -0.996637    0.677486   -0.093179   -0.161432    0.051907   -0.008780
C     0.211544    1.365861   -0.116489    0.226655   -0.975554    0.087029
O    -2.317090   -1.210614    0.027796   -0.672432   -0.269293    0.004237
O     0.155276    2.685092   -0.227521   -0.034569    0.540099   -0.045745
H     2.072414   -1.424272    0.164878    0.007346    0.085223   -0.006795
H    -1.849152    1.220319   -0.162633    0.011003    0.234412   -0.019347
H     2.356125    1.012824   -0.028671    0.133154   -0.368018    0.034109
11
* Frequency(29) 1766.0115
C     1.363977    0.558776   -0.018414   -0.108833    0.294198   -0.027208
C     1.170518   -0.793793    0.088069   -0.017175   -0.048202    0.003474
N     0.026381   -1.463875    0.112457   -0.235463   -0.002037   -0.006240
C    -1.211972   -0.746506    0.019149    1.291236    0.314738    0.008842
N    -0.978038    0.671506   -0.092167   -0.161432    0.051907   -0.008780
C     0.185429    1.478260   -0.126516    0.226655   -0.975554    0.087029
O    -2.239615   -1.179587    0.027308   -0.672432   -0.269293    0.004237
O     0.159259    2.622864   -0.222250   -0.034569    0.540099   -0.045745
H     2.071567   -1.434091    0.165661    0.007346    0.085223   -0.006795
H    -1.850419    1.193311   -0.160404    0.011003    0.234412   -0.019347
H     2.340783    1.055225   -0.032601    0.133154   -0.368018    0.034109
11
* Frequency(29) 1766.0115
C     1.375837    0.526716   -0.015449   -0.108833    0.294198   -0.027208
C     1.172390   -0.788540    0.087690   -0.017175   -0.048202    0.003474
N     0.052040   -1.463653    0.113137   -0.235463   -0.002037   -0.006240
C    -1.352682   -0.780804    0.018186    1.291236    0.314738    0.008842
N    -0.960446    0.665849   -0.091210   -0.161432    0.051907   -0.008780
C     0.160730    1.584570   -0.136000    0.226655   -0.975554    0.087029
O    -2.166338   -1.150241    0.026846   -0.672432   -0.269293    0.004237
O     0.163026    2.564007   -0.217265   -0.034569    0.540099   -0.045745
H     2.070767   -1.443378    0.166401    0.007346    0.085223   -0.006795
H    -1.851619    1.167766   -0.158296    0.011003    0.234412   -0.019347
H     2.326273    1.095330   -0.036318    0.133154   -0.368018    0.034109
11
* Frequency(29) 1766.0115
C     1.385733    0.499967   -0.012975   -0.108833    0.294198   -0.027208
C     1.173951   -0.784157    0.087375   -0.017175   -0.048202    0.003474
N     0.073449   -1.463468    0.113705   -0.235463   -0.002037   -0.006240
C    -1.470084   -0.809420    0.017382    1.291236    0.314738    0.008842
N    -0.945768    0.661130   -0.090412   -0.161432    0.051907   -0.008780
C     0.140122    1.673269   -0.143913    0.226655   -0.975554    0.087029
O    -2.105199   -1.125756    0.026461   -0.672432   -0.269293    0.004237
O     0.166169    2.514901   -0.213106   -0.034569    0.540099   -0.045745
H     2.070099   -1.451127    0.167019    0.007346    0.085223   -0.006795
H    -1.852619    1.146453   -0.156537    0.011003    0.234412   -0.019347
H     2.314166    1.128790   -0.039419    0.133154   -0.368018    0.034109
11
* Frequency(29) 1766.0115
C     1.392591    0.481428   -0.011261   -0.108833    0.294198   -0.027208
C     1.175034   -0.781120    0.087156   -0.017175   -0.048202    0.003474
N     0.088287   -1.463340    0.114098   -0.235463   -0.002037   -0.006240
C    -1.551454   -0.829254    0.016825    1.291236    0.314738    0.008842
N    -0.935595    0.657859   -0.089858   -0.161432    0.051907   -0.008780
C     0.125839    1.734745   -0.149397    0.226655   -0.975554    0.087029
O    -2.062824   -1.108786    0.026194   -0.672432   -0.269293    0.004237
O     0.168348    2.480865   -0.210223   -0.034569    0.540099   -0.045745
H     2.069636   -1.456498    0.167447    0.007346    0.085223   -0.006795
H    -1.853312    1.131681   -0.155317    0.011003    0.234412   -0.019347
H     2.305775    1.151982   -0.041569    0.133154   -0.368018    0.034109
11
* Frequency(29) 1766.0115
C     1.395669    0.473107   -0.010491   -0.108833    0.294198   -0.027208
C     1.175520   -0.779756    0.087057   -0.017175   -0.048202    0.003474
N     0.094947   -1.463282    0.114275   -0.235463   -0.002037   -0.006240
C    -1.587975   -0.838156    0.016575    1.291236    0.314738    0.008842
N    -0.931029    0.656391   -0.089610   -0.161432    0.051907   -0.008780
C     0.119428    1.762338   -0.151859    0.226655   -0.975554    0.087029
O    -2.043805   -1.101169    0.026074   -0.672432   -0.269293    0.004237
O     0.169326    2.465589   -0.208929   -0.034569    0.540099   -0.045745
H     2.069428   -1.458908    0.167639    0.007346    0.085223   -0.006795
H    -1.853624    1.125051   -0.154770    0.011003    0.234412   -0.019347
H     2.302009    1.162391   -0.042533    0.133154   -0.368018    0.034109
11
* Frequency(29) 1766.0115
C     1.394634    0.475906   -0.010750   -0.108833    0.294198   -0.027208
C     1.175356   -0.780215    0.087090   -0.017175   -0.048202    0.003474
N     0.092706   -1.463301    0.114215   -0.235463   -0.002037   -0.006240
C    -1.575690   -0.835162    0.016659    1.291236    0.314738    0.008842
N    -0.932565    0.656885   -0.089694   -0.161432    0.051907   -0.008780
C     0.121585    1.753056   -0.151031    0.226655   -0.975554    0.087029
O    -2.050203   -1.103732    0.026114   -0.672432   -0.269293    0.004237
O     0.168997    2.470728   -0.209365   -0.034569    0.540099   -0.045745
H     2.069498   -1.458097    0.167575    0.007346    0.085223   -0.006795
H    -1.853519    1.127281   -0.154954    0.011003    0.234412   -0.019347
H     2.303276    1.158889   -0.042209    0.133154   -0.368018    0.034109
11
* Frequency(29) 1766.0115
C     1.389597    0.489522   -0.012009   -0.108833    0.294198   -0.027208
C     1.174561   -0.782446    0.087251   -0.017175   -0.048202    0.003474
N     0.081809   -1.463396    0.113926   -0.235463   -0.002037   -0.006240
C    -1.515929   -0.820595    0.017068    1.291236    0.314738    0.008842
N    -0.940037    0.659287   -0.090100   -0.161432    0.051907   -0.008780
C     0.132075    1.707906   -0.147003    0.226655   -0.975554    0.087029
O    -2.081324   -1.116195    0.026310   -0.672432   -0.269293    0.004237
O     0.167397    2.495725   -0.211482   -0.034569    0.540099   -0.045745
H     2.069838   -1.454153    0.167260    0.007346    0.085223   -0.006795
H    -1.853010    1.138130   -0.155850    0.011003    0.234412   -0.019347
H     2.309439    1.141857   -0.040630    0.133154   -0.368018    0.034109
11
* Frequency(29) 1766.0115
C     1.381104    0.512479   -0.014133   -0.108833    0.294198   -0.027208
C     1.173221   -0.786207    0.087522   -0.017175   -0.048202    0.003474
N     0.063435   -1.463555    0.113439   -0.235463   -0.002037   -0.006240
C    -1.415169   -0.796035    0.017758    1.291236    0.314738    0.008842
N    -0.952634    0.663337   -0.090785   -0.161432    0.051907   -0.008780
C     0.149762    1.631779   -0.140212    0.226655   -0.975554    0.087029
O    -2.133797   -1.137209    0.026641   -0.672432   -0.269293    0.004237
O     0.164699    2.537870   -0.215052   -0.034569    0.540099   -0.045745
H     2.070411   -1.447503    0.166730    0.007346    0.085223   -0.006795
H    -1.852151    1.156422   -0.157359    0.011003    0.234412   -0.019347
H     2.319829    1.113139   -0.037969    0.133154   -0.368018    0.034109
11
* Frequency(29) 1766.0115
C     1.370076    0.542290   -0.016890   -0.108833    0.294198   -0.027208
C     1.171481   -0.791091    0.087874   -0.017175   -0.048202    0.003474
N     0.039575   -1.463761    0.112807   -0.235463   -0.002037   -0.006240
C    -1.284328   -0.764142    0.018654    1.291236    0.314738    0.008842
N    -0.968991    0.668597   -0.091675   -0.161432    0.051907   -0.008780
C     0.172728    1.532927   -0.131393    0.226655   -0.975554    0.087029
O    -2.201934   -1.164496    0.027070   -0.672432   -0.269293    0.004237
O     0.161196    2.592599   -0.219687   -0.034569    0.540099   -0.045745
H     2.071156   -1.438867    0.166042    0.007346    0.085223   -0.006795
H    -1.851036    1.180175   -0.159320    0.011003    0.234412   -0.019347
H     2.333322    1.075848   -0.034512    0.133154   -0.368018    0.034109
11
* Frequency(29) 1766.0115
C     1.357708    0.575724   -0.019982   -0.108833    0.294198   -0.027208
C     1.169529   -0.796569    0.088269   -0.017175   -0.048202    0.003474
N     0.012816   -1.463992    0.112098   -0.235463   -0.002037   -0.006240
C    -1.137586   -0.728374    0.019659    1.291236    0.314738    0.008842
N    -0.987337    0.674496   -0.092673   -0.161432    0.051907   -0.008780
C     0.198487    1.422060   -0.121503    0.226655   -0.975554    0.087029
O    -2.278352   -1.195100    0.027552   -0.672432   -0.269293    0.004237
O     0.157268    2.653978   -0.224886   -0.034569    0.540099   -0.045745
H     2.071990   -1.429182    0.165269    0.007346    0.085223   -0.006795
H    -1.849786    1.206815   -0.161518    0.011003    0.234412   -0.019347
H     2.348454    1.034025   -0.030636    0.133154   -0.368018    0.034109
