11
* (null), Energy   -1000.0000000
C     1.591454    0.406609    0.009810   -0.026229    0.078239    0.947947
C     1.402862   -0.965542    0.118363    0.002033   -0.007201   -0.082784
N     0.246024   -1.632751    0.142050    0.023107   -0.070918   -0.849645
C    -0.904486   -0.897558    0.049520    0.001666   -0.004548   -0.055340
N    -0.754011    0.505509   -0.063362   -0.009385    0.028686    0.345454
C     0.431975    1.252895   -0.092416   -0.004955    0.015496    0.184253
O    -2.045071   -1.364389    0.057523   -0.007704    0.024327    0.295361
O     0.390516    2.484935   -0.194533    0.017988   -0.053733   -0.659425
H     2.305441   -1.598210    0.195810    0.010598   -0.033327   -0.395899
H    -1.616489    1.037825   -0.130328   -0.003251    0.009328    0.112823
H     2.582079    0.864994   -0.000426   -0.033749    0.100659    1.222567
11
* Frequency(7)  191.8672
C     1.588474    0.415501    0.117540   -0.026229    0.078239    0.947947
C     1.403093   -0.966360    0.108955    0.002033   -0.007201   -0.082784
N     0.248650   -1.640810    0.045492    0.023107   -0.070918   -0.849645
C    -0.904297   -0.898075    0.043230    0.001666   -0.004548   -0.055340
N    -0.755078    0.508769   -0.024103   -0.009385    0.028686    0.345454
C     0.431412    1.254656   -0.071477   -0.004955    0.015496    0.184253
O    -2.045946   -1.361624    0.091089   -0.007704    0.024327    0.295361
O     0.392560    2.478828   -0.269473    0.017988   -0.053733   -0.659425
H     2.306645   -1.601997    0.150818    0.010598   -0.033327   -0.395899
H    -1.616858    1.038885   -0.117506   -0.003251    0.009328    0.112823
H     2.578244    0.876433    0.138512   -0.033749    0.100659    1.222567
11
* Frequency(7)  191.8672
C     1.585816    0.423429    0.213595   -0.026229    0.078239    0.947947
C     1.403299   -0.967090    0.100567    0.002033   -0.007201   -0.082784
N     0.250991   -1.647996   -0.040602    0.023107   -0.070918   -0.849645
C    -0.904128   -0.898536    0.037623    0.001666   -0.004548   -0.055340
N    -0.756029    0.511676    0.010902   -0.009385    0.028686    0.345454
C     0.430910    1.256226   -0.052806   -0.004955    0.015496    0.184253
O    -2.046727   -1.359159    0.121018   -0.007704    0.024327    0.295361
O     0.394383    2.473384   -0.336293    0.017988   -0.053733   -0.659425
H     2.307719   -1.605374    0.110702    0.010598   -0.033327   -0.395899
H    -1.617188    1.039830   -0.106074   -0.003251    0.009328    0.112823
H     2.574824    0.886633    0.262395   -0.033749    0.100659    1.222567
11
* Frequency(7)  191.8672
C     1.583769    0.429534    0.287567   -0.026229    0.078239    0.947947
C     1.403458   -0.967652    0.094107    0.002033   -0.007201   -0.082784
N     0.252794   -1.653530   -0.106903    0.023107   -0.070918   -0.849645
C    -0.903998   -0.898891    0.033305    0.001666   -0.004548   -0.055340
N    -0.756761    0.513914    0.037859   -0.009385    0.028686    0.345454
C     0.430523    1.257436   -0.038428   -0.004955    0.015496    0.184253
O    -2.047328   -1.357261    0.144066   -0.007704    0.024327    0.295361
O     0.395787    2.469191   -0.387750    0.017988   -0.053733   -0.659425
H     2.308546   -1.607975    0.079808    0.010598   -0.033327   -0.395899
H    -1.617441    1.040558   -0.097270   -0.003251    0.009328    0.112823
H     2.572191    0.894487    0.357796   -0.033749    0.100659    1.222567
11
* Frequency(7)  191.8672
C     1.582555    0.433155    0.331439   -0.026229    0.078239    0.947947
C     1.403552   -0.967985    0.090275    0.002033   -0.007201   -0.082784
N     0.253864   -1.656812   -0.146226    0.023107   -0.070918   -0.849645
C    -0.903921   -0.899102    0.030743    0.001666   -0.004548   -0.055340
N    -0.757195    0.515242    0.053847   -0.009385    0.028686    0.345454
C     0.430294    1.258153   -0.029901   -0.004955    0.015496    0.184253
O    -2.047685   -1.356135    0.157736   -0.007704    0.024327    0.295361
O     0.396619    2.466704   -0.418270    0.017988   -0.053733   -0.659425
H     2.309037   -1.609518    0.061485    0.010598   -0.033327   -0.395899
H    -1.617592    1.040990   -0.092048   -0.003251    0.009328    0.112823
H     2.570629    0.899146    0.414379   -0.033749    0.100659    1.222567
11
* Frequency(7)  191.8672
C     1.582306    0.433899    0.340459   -0.026229    0.078239    0.947947
C     1.403571   -0.968053    0.089488    0.002033   -0.007201   -0.082784
N     0.254084   -1.657487   -0.154310    0.023107   -0.070918   -0.849645
C    -0.903906   -0.899145    0.030217    0.001666   -0.004548   -0.055340
N    -0.757285    0.515515    0.057134   -0.009385    0.028686    0.345454
C     0.430247    1.258300   -0.028148   -0.004955    0.015496    0.184253
O    -2.047758   -1.355904    0.160546   -0.007704    0.024327    0.295361
O     0.396790    2.466193   -0.424544    0.017988   -0.053733   -0.659425
H     2.309138   -1.609835    0.057719    0.010598   -0.033327   -0.395899
H    -1.617623    1.041079   -0.090975   -0.003251    0.009328    0.112823
H     2.570308    0.900104    0.426011   -0.033749    0.100659    1.222567
11
* Frequency(7)  191.8672
C     1.583048    0.431686    0.313647   -0.026229    0.078239    0.947947
C     1.403514   -0.967850    0.091829    0.002033   -0.007201   -0.082784
N     0.253430   -1.655481   -0.130279    0.023107   -0.070918   -0.849645
C    -0.903953   -0.899016    0.031782    0.001666   -0.004548   -0.055340
N    -0.757019    0.514704    0.047363   -0.009385    0.028686    0.345454
C     0.430387    1.257862   -0.033359   -0.004955    0.015496    0.184253
O    -2.047540   -1.356592    0.152192   -0.007704    0.024327    0.295361
O     0.396282    2.467712   -0.405893    0.017988   -0.053733   -0.659425
H     2.308838   -1.608892    0.068916    0.010598   -0.033327   -0.395899
H    -1.617531    1.040815   -0.094166   -0.003251    0.009328    0.112823
H     2.571262    0.897257    0.391432   -0.033749    0.100659    1.222567
11
* Frequency(7)  191.8672
C     1.584700    0.426756    0.253910   -0.026229    0.078239    0.947947
C     1.403385   -0.967396    0.097046    0.002033   -0.007201   -0.082784
N     0.251974   -1.651012   -0.076737    0.023107   -0.070918   -0.849645
C    -0.904058   -0.898730    0.035269    0.001666   -0.004548   -0.055340
N    -0.756428    0.512896    0.025594   -0.009385    0.028686    0.345454
C     0.430699    1.256885   -0.044970   -0.004955    0.015496    0.184253
O    -2.047055   -1.358125    0.133580   -0.007704    0.024327    0.295361
O     0.395148    2.471098   -0.364337    0.017988   -0.053733   -0.659425
H     2.308170   -1.606792    0.093865    0.010598   -0.033327   -0.395899
H    -1.617326    1.040227   -0.101276   -0.003251    0.009328    0.112823
H     2.573389    0.890914    0.314389   -0.033749    0.100659    1.222567
11
* Frequency(7)  191.8672
C     1.587085    0.419642    0.167721   -0.026229    0.078239    0.947947
C     1.403201   -0.966741    0.104573    0.002033   -0.007201   -0.082784
N     0.249873   -1.644564    0.000515    0.023107   -0.070918   -0.849645
C    -0.904209   -0.898316    0.040301    0.001666   -0.004548   -0.055340
N    -0.755575    0.510288   -0.005816   -0.009385    0.028686    0.345454
C     0.431150    1.255477   -0.061723   -0.004955    0.015496    0.184253
O    -2.046354   -1.360337    0.106725   -0.007704    0.024327    0.295361
O     0.393513    2.475984   -0.304381    0.017988   -0.053733   -0.659425
H     2.307206   -1.603762    0.129860    0.010598   -0.033327   -0.395899
H    -1.617030    1.039379   -0.111534   -0.003251    0.009328    0.112823
H     2.576457    0.881761    0.203231   -0.033749    0.100659    1.222567
11
* Frequency(7)  191.8672
C     1.589943    0.411116    0.064420   -0.026229    0.078239    0.947947
C     1.402979   -0.965957    0.113594    0.002033   -0.007201   -0.082784
N     0.247355   -1.636836    0.093103    0.023107   -0.070918   -0.849645
C    -0.904391   -0.897820    0.046332    0.001666   -0.004548   -0.055340
N    -0.754552    0.507162   -0.043461   -0.009385    0.028686    0.345454
C     0.431690    1.253788   -0.081801   -0.004955    0.015496    0.184253
O    -2.045515   -1.362988    0.074538   -0.007704    0.024327    0.295361
O     0.391552    2.481839   -0.232521    0.017988   -0.053733   -0.659425
H     2.306052   -1.600130    0.173003    0.010598   -0.033327   -0.395899
H    -1.616676    1.038362   -0.123828   -0.003251    0.009328    0.112823
H     2.580135    0.870792    0.070004   -0.033749    0.100659    1.222567
11
* Frequency(7)  191.8672
C     1.592965    0.402102   -0.044799   -0.026229    0.078239    0.947947
C     1.402745   -0.965127    0.123132    0.002033   -0.007201   -0.082784
N     0.244693   -1.628665    0.190996    0.023107   -0.070918   -0.849645
C    -0.904582   -0.897296    0.052708    0.001666   -0.004548   -0.055340
N    -0.753471    0.503857   -0.083263   -0.009385    0.028686    0.345454
C     0.432261    1.252003   -0.103030   -0.004955    0.015496    0.184253
O    -2.044627   -1.365790    0.040508   -0.007704    0.024327    0.295361
O     0.389480    2.488030   -0.156545    0.017988   -0.053733   -0.659425
H     2.304830   -1.596290    0.218617    0.010598   -0.033327   -0.395899
H    -1.616302    1.037287   -0.136827   -0.003251    0.009328    0.112823
H     2.584024    0.859195   -0.070856   -0.033749    0.100659    1.222567
11
* Frequency(7)  191.8672
C     1.595824    0.393576   -0.148100   -0.026229    0.078239    0.947947
C     1.402523   -0.964342    0.132154    0.002033   -0.007201   -0.082784
N     0.242175   -1.620937    0.283585    0.023107   -0.070918   -0.849645
C    -0.904764   -0.896801    0.058738    0.001666   -0.004548   -0.055340
N    -0.752448    0.500731   -0.120908   -0.009385    0.028686    0.345454
C     0.432801    1.250314   -0.123109   -0.004955    0.015496    0.184253
O    -2.043787   -1.368441    0.008321   -0.007704    0.024327    0.295361
O     0.387520    2.493886   -0.084685    0.017988   -0.053733   -0.659425
H     2.303675   -1.592658    0.261759    0.010598   -0.033327   -0.395899
H    -1.615947    1.036271   -0.149122   -0.003251    0.009328    0.112823
H     2.587701    0.848226   -0.204083   -0.033749    0.100659    1.222567
11
* Frequency(7)  191.8672
C     1.598208    0.386462   -0.234289   -0.026229    0.078239    0.947947
C     1.402338   -0.963688    0.139680    0.002033   -0.007201   -0.082784
N     0.240074   -1.614489    0.360836    0.023107   -0.070918   -0.849645
C    -0.904915   -0.896387    0.063770    0.001666   -0.004548   -0.055340
N    -0.751595    0.498122   -0.152317   -0.009385    0.028686    0.345454
C     0.433251    1.248905   -0.139862   -0.004955    0.015496    0.184253
O    -2.043087   -1.370653   -0.018534   -0.007704    0.024327    0.295361
O     0.385884    2.498771   -0.024729    0.017988   -0.053733   -0.659425
H     2.302712   -1.589628    0.297755    0.010598   -0.033327   -0.395899
H    -1.615652    1.035423   -0.159380   -0.003251    0.009328    0.112823
H     2.590770    0.839074   -0.315241   -0.033749    0.100659    1.222567
11
* Frequency(7)  191.8672
C     1.599861    0.381532   -0.294026   -0.026229    0.078239    0.947947
C     1.402210   -0.963234    0.144897    0.002033   -0.007201   -0.082784
N     0.238618   -1.610020    0.414378    0.023107   -0.070918   -0.849645
C    -0.905020   -0.896100    0.067257    0.001666   -0.004548   -0.055340
N    -0.751003    0.496315   -0.174087   -0.009385    0.028686    0.345454
C     0.433563    1.247928   -0.151473   -0.004955    0.015496    0.184253
O    -2.042601   -1.372186   -0.037146   -0.007704    0.024327    0.295361
O     0.384751    2.502157    0.016826    0.017988   -0.053733   -0.659425
H     2.302044   -1.587528    0.322704    0.010598   -0.033327   -0.395899
H    -1.615447    1.034835   -0.166490   -0.003251    0.009328    0.112823
H     2.592896    0.832730   -0.392284   -0.033749    0.100659    1.222567
11
* Frequency(7)  191.8672
C     1.600603    0.379319   -0.320838   -0.026229    0.078239    0.947947
C     1.402153   -0.963030    0.147239    0.002033   -0.007201   -0.082784
N     0.237964   -1.608014    0.438410    0.023107   -0.070918   -0.849645
C    -0.905067   -0.895972    0.068822    0.001666   -0.004548   -0.055340
N    -0.750738    0.495503   -0.183858   -0.009385    0.028686    0.345454
C     0.433703    1.247490   -0.156684   -0.004955    0.015496    0.184253
O    -2.042384   -1.372874   -0.045500   -0.007704    0.024327    0.295361
O     0.384242    2.503677    0.035477    0.017988   -0.053733   -0.659425
H     2.301744   -1.586585    0.333901    0.010598   -0.033327   -0.395899
H    -1.615355    1.034571   -0.169681   -0.003251    0.009328    0.112823
H     2.593851    0.829883   -0.426863   -0.033749    0.100659    1.222567
11
* Frequency(7)  191.8672
C     1.600353    0.380064   -0.311819   -0.026229    0.078239    0.947947
C     1.402172   -0.963099    0.146451    0.002033   -0.007201   -0.082784
N     0.238184   -1.608689    0.430326    0.023107   -0.070918   -0.849645
C    -0.905052   -0.896015    0.068296    0.001666   -0.004548   -0.055340
N    -0.750827    0.495776   -0.180571   -0.009385    0.028686    0.345454
C     0.433656    1.247638   -0.154931   -0.004955    0.015496    0.184253
O    -2.042457   -1.372643   -0.042690   -0.007704    0.024327    0.295361
O     0.384413    2.503166    0.029203    0.017988   -0.053733   -0.659425
H     2.301845   -1.586903    0.330135    0.010598   -0.033327   -0.395899
H    -1.615386    1.034660   -0.168607   -0.003251    0.009328    0.112823
H     2.593530    0.830841   -0.415231   -0.033749    0.100659    1.222567
11
* Frequency(7)  191.8672
C     1.599140    0.383685   -0.267946   -0.026229    0.078239    0.947947
C     1.402266   -0.963432    0.142620    0.002033   -0.007201   -0.082784
N     0.239253   -1.611971    0.391003    0.023107   -0.070918   -0.849645
C    -0.904975   -0.896226    0.065735    0.001666   -0.004548   -0.055340
N    -0.751261    0.497104   -0.164583   -0.009385    0.028686    0.345454
C     0.433427    1.248355   -0.146404   -0.004955    0.015496    0.184253
O    -2.042813   -1.371517   -0.029020   -0.007704    0.024327    0.295361
O     0.385245    2.500679   -0.001316    0.017988   -0.053733   -0.659425
H     2.302336   -1.588445    0.311812    0.010598   -0.033327   -0.395899
H    -1.615536    1.035092   -0.163386   -0.003251    0.009328    0.112823
H     2.591968    0.835500   -0.358648   -0.033749    0.100659    1.222567
11
* Frequency(7)  191.8672
C     1.597093    0.389790   -0.193974   -0.026229    0.078239    0.947947
C     1.402425   -0.963994    0.136160    0.002033   -0.007201   -0.082784
N     0.241057   -1.617505    0.324702    0.023107   -0.070918   -0.849645
C    -0.904845   -0.896581    0.061416    0.001666   -0.004548   -0.055340
N    -0.751994    0.499342   -0.137626   -0.009385    0.028686    0.345454
C     0.433040    1.249564   -0.132026   -0.004955    0.015496    0.184253
O    -2.043415   -1.369619   -0.005972   -0.007704    0.024327    0.295361
O     0.386649    2.496486   -0.052774    0.017988   -0.053733   -0.659425
H     2.303163   -1.591046    0.280918    0.010598   -0.033327   -0.395899
H    -1.615790    1.035819   -0.154582   -0.003251    0.009328    0.112823
H     2.589334    0.843354   -0.263247   -0.033749    0.100659    1.222567
11
* Frequency(7)  191.8672
C     1.594435    0.397718   -0.097919   -0.026229    0.078239    0.947947
C     1.402631   -0.964723    0.127771    0.002033   -0.007201   -0.082784
N     0.243398   -1.624691    0.238607    0.023107   -0.070918   -0.849645
C    -0.904676   -0.897041    0.055809    0.001666   -0.004548   -0.055340
N    -0.752945    0.502249   -0.102621   -0.009385    0.028686    0.345454
C     0.432538    1.251134   -0.113355   -0.004955    0.015496    0.184253
O    -2.044195   -1.367154    0.023957   -0.007704    0.024327    0.295361
O     0.388472    2.491041   -0.119593    0.017988   -0.053733   -0.659425
H     2.304237   -1.594423    0.240802    0.010598   -0.033327   -0.395899
H    -1.616119    1.036765   -0.143149   -0.003251    0.009328    0.112823
H     2.585915    0.853554   -0.139364   -0.033749    0.100659    1.222567
11
* Frequency(7)  191.8672
C     1.591454    0.406609    0.009810   -0.026229    0.078239    0.947947
C     1.402862   -0.965542    0.118363    0.002033   -0.007201   -0.082784
N     0.246024   -1.632751    0.142050    0.023107   -0.070918   -0.849645
C    -0.904486   -0.897558    0.049520    0.001666   -0.004548   -0.055340
N    -0.754011    0.505509   -0.063362   -0.009385    0.028686    0.345454
C     0.431975    1.252895   -0.092416   -0.004955    0.015496    0.184253
O    -2.045071   -1.364389    0.057523   -0.007704    0.024327    0.295361
O     0.390516    2.484935   -0.194533    0.017988   -0.053733   -0.659425
H     2.305441   -1.598210    0.195810    0.010598   -0.033327   -0.395899
H    -1.616489    1.037825   -0.130328   -0.003251    0.009328    0.112823
H     2.582079    0.864994   -0.000426   -0.033749    0.100659    1.222567
