11
* (null), Energy   -1000.0000000
C     1.591454    0.406609    0.009810    0.113655   -0.046402    0.006938
C     1.402862   -0.965542    0.118363    0.211368    0.036145    0.002932
N     0.246024   -1.632751    0.142050   -0.300309   -0.088348   -0.000887
C    -0.904486   -0.897558    0.049520   -0.025380    0.179615   -0.015671
N    -0.754011    0.505509   -0.063362    0.220535    0.114278   -0.003404
C     0.431975    1.252895   -0.092416   -0.234236    0.013874   -0.007636
O    -2.045071   -1.364389    0.057523   -0.040494   -0.095573    0.006863
O     0.390516    2.484935   -0.194533    0.012517   -0.058283    0.005128
H     2.305441   -1.598210    0.195810    1.010363    1.148057   -0.068370
H    -1.616489    1.037825   -0.130328   -0.460799   -1.001693    0.070760
H     2.582079    0.864994   -0.000426    0.223641   -0.247996    0.027015
11
* Frequency(23) 1326.5059
C     1.604371    0.401336    0.010599    0.113655   -0.046402    0.006938
C     1.426883   -0.961434    0.118697    0.211368    0.036145    0.002932
N     0.211895   -1.642791    0.141949   -0.300309   -0.088348   -0.000887
C    -0.907371   -0.877146    0.047739   -0.025380    0.179615   -0.015671
N    -0.728949    0.518496   -0.063749    0.220535    0.114278   -0.003404
C     0.405355    1.254472   -0.093284   -0.234236    0.013874   -0.007636
O    -2.049673   -1.375250    0.058303   -0.040494   -0.095573    0.006863
O     0.391939    2.478311   -0.193950    0.012517   -0.058283    0.005128
H     2.420263   -1.467739    0.188040    1.010363    1.148057   -0.068370
H    -1.668856    0.923988   -0.122286   -0.460799   -1.001693    0.070760
H     2.607495    0.836810    0.002644    0.223641   -0.247996    0.027015
11
* Frequency(23) 1326.5059
C     1.615887    0.396634    0.011302    0.113655   -0.046402    0.006938
C     1.448301   -0.957771    0.118994    0.211368    0.036145    0.002932
N     0.181465   -1.651743    0.141859   -0.300309   -0.088348   -0.000887
C    -0.909943   -0.858946    0.046151   -0.025380    0.179615   -0.015671
N    -0.706602    0.530076   -0.064093    0.220535    0.114278   -0.003404
C     0.381620    1.255878   -0.094057   -0.234236    0.013874   -0.007636
O    -2.053776   -1.384935    0.058998   -0.040494   -0.095573    0.006863
O     0.393207    2.472405   -0.193431    0.012517   -0.058283    0.005128
H     2.522643   -1.351407    0.181112    1.010363    1.148057   -0.068370
H    -1.715549    0.822486   -0.115116   -0.460799   -1.001693    0.070760
H     2.630156    0.811681    0.005382    0.223641   -0.247996    0.027015
11
* Frequency(23) 1326.5059
C     1.624756    0.393013    0.011843    0.113655   -0.046402    0.006938
C     1.464794   -0.954951    0.119223    0.211368    0.036145    0.002932
N     0.158031   -1.658637    0.141790   -0.300309   -0.088348   -0.000887
C    -0.911923   -0.844930    0.044928   -0.025380    0.179615   -0.015671
N    -0.689393    0.538994   -0.064359    0.220535    0.114278   -0.003404
C     0.363342    1.256960   -0.094653   -0.234236    0.013874   -0.007636
O    -2.056936   -1.392393    0.059534   -0.040494   -0.095573    0.006863
O     0.394184    2.467857   -0.193031    0.012517   -0.058283    0.005128
H     2.601486   -1.261820    0.175777    1.010363    1.148057   -0.068370
H    -1.751507    0.744320   -0.109594   -0.460799   -1.001693    0.070760
H     2.647608    0.792329    0.007490    0.223641   -0.247996    0.027015
11
* Frequency(23) 1326.5059
C     1.630016    0.390865    0.012165    0.113655   -0.046402    0.006938
C     1.474577   -0.953278    0.119358    0.211368    0.036145    0.002932
N     0.144132   -1.662726    0.141749   -0.300309   -0.088348   -0.000887
C    -0.913098   -0.836617    0.044203   -0.025380    0.179615   -0.015671
N    -0.679186    0.544283   -0.064517    0.220535    0.114278   -0.003404
C     0.352501    1.257602   -0.095007   -0.234236    0.013874   -0.007636
O    -2.058810   -1.396816    0.059851   -0.040494   -0.095573    0.006863
O     0.394763    2.465160   -0.192793    0.012517   -0.058283    0.005128
H     2.648247   -1.208686    0.172613    1.010363    1.148057   -0.068370
H    -1.772833    0.697960   -0.106320   -0.460799   -1.001693    0.070760
H     2.657958    0.780851    0.008740    0.223641   -0.247996    0.027015
11
* Frequency(23) 1326.5059
C     1.631098    0.390424    0.012231    0.113655   -0.046402    0.006938
C     1.476588   -0.952934    0.119386    0.211368    0.036145    0.002932
N     0.141275   -1.663567    0.141740   -0.300309   -0.088348   -0.000887
C    -0.913339   -0.834908    0.044053   -0.025380    0.179615   -0.015671
N    -0.677088    0.545370   -0.064549    0.220535    0.114278   -0.003404
C     0.350273    1.257734   -0.095079   -0.234236    0.013874   -0.007636
O    -2.059195   -1.397725    0.059917   -0.040494   -0.095573    0.006863
O     0.394882    2.464605   -0.192744    0.012517   -0.058283    0.005128
H     2.657860   -1.197762    0.171962    1.010363    1.148057   -0.068370
H    -1.777218    0.688430   -0.105646   -0.460799   -1.001693    0.070760
H     2.660086    0.778492    0.008997    0.223641   -0.247996    0.027015
11
* Frequency(23) 1326.5059
C     1.627883    0.391736    0.012034    0.113655   -0.046402    0.006938
C     1.470610   -0.953957    0.119303    0.211368    0.036145    0.002932
N     0.149769   -1.661068    0.141765   -0.300309   -0.088348   -0.000887
C    -0.912621   -0.839988    0.044497   -0.025380    0.179615   -0.015671
N    -0.683325    0.542138   -0.064453    0.220535    0.114278   -0.003404
C     0.356898    1.257342   -0.094863   -0.234236    0.013874   -0.007636
O    -2.058050   -1.395022    0.059723   -0.040494   -0.095573    0.006863
O     0.394528    2.466254   -0.192889    0.012517   -0.058283    0.005128
H     2.629283   -1.230234    0.173896    1.010363    1.148057   -0.068370
H    -1.764184    0.716761   -0.107648   -0.460799   -1.001693    0.070760
H     2.653761    0.785506    0.008233    0.223641   -0.247996    0.027015
11
* Frequency(23) 1326.5059
C     1.620721    0.394660    0.011597    0.113655   -0.046402    0.006938
C     1.457290   -0.956234    0.119118    0.211368    0.036145    0.002932
N     0.168693   -1.655501    0.141821   -0.300309   -0.088348   -0.000887
C    -0.911022   -0.851307    0.045484   -0.025380    0.179615   -0.015671
N    -0.697223    0.534936   -0.064238    0.220535    0.114278   -0.003404
C     0.371659    1.256468   -0.094382   -0.234236    0.013874   -0.007636
O    -2.055498   -1.388999    0.059290   -0.040494   -0.095573    0.006863
O     0.393739    2.469927   -0.193213    0.012517   -0.058283    0.005128
H     2.565613   -1.302581    0.178204    1.010363    1.148057   -0.068370
H    -1.735146    0.779885   -0.112107   -0.460799   -1.001693    0.070760
H     2.639668    0.801134    0.006531    0.223641   -0.247996    0.027015
11
* Frequency(23) 1326.5059
C     1.610387    0.398879    0.010966    0.113655   -0.046402    0.006938
C     1.438072   -0.959521    0.118852    0.211368    0.036145    0.002932
N     0.195998   -1.647468    0.141902   -0.300309   -0.088348   -0.000887
C    -0.908714   -0.867638    0.046909   -0.025380    0.179615   -0.015671
N    -0.717274    0.524546   -0.063929    0.220535    0.114278   -0.003404
C     0.392956    1.255206   -0.093688   -0.234236    0.013874   -0.007636
O    -2.051816   -1.380310    0.058666   -0.040494   -0.095573    0.006863
O     0.392601    2.475226   -0.193679    0.012517   -0.058283    0.005128
H     2.473749   -1.406965    0.184421    1.010363    1.148057   -0.068370
H    -1.693249    0.870961   -0.118540   -0.460799   -1.001693    0.070760
H     2.619334    0.823682    0.004074    0.223641   -0.247996    0.027015
11
* Frequency(23) 1326.5059
C     1.598002    0.403936    0.010210    0.113655   -0.046402    0.006938
C     1.415038   -0.963460    0.118532    0.211368    0.036145    0.002932
N     0.228724   -1.637840    0.141999   -0.300309   -0.088348   -0.000887
C    -0.905949   -0.887211    0.048617   -0.025380    0.179615   -0.015671
N    -0.741307    0.512093   -0.063558    0.220535    0.114278   -0.003404
C     0.418481    1.253694   -0.092856   -0.234236    0.013874   -0.007636
O    -2.047404   -1.369895    0.057918   -0.040494   -0.095573    0.006863
O     0.391237    2.481577   -0.194238    0.012517   -0.058283    0.005128
H     2.363646   -1.532073    0.191871    1.010363    1.148057   -0.068370
H    -1.643035    0.980119   -0.126251   -0.460799   -1.001693    0.070760
H     2.594963    0.850707    0.001130    0.223641   -0.247996    0.027015
11
* Frequency(23) 1326.5059
C     1.584907    0.409282    0.009411    0.113655   -0.046402    0.006938
C     1.390685   -0.967624    0.118194    0.211368    0.036145    0.002932
N     0.263324   -1.627661    0.142101   -0.300309   -0.088348   -0.000887
C    -0.903024   -0.907906    0.050422   -0.025380    0.179615   -0.015671
N    -0.766716    0.498926   -0.063166    0.220535    0.114278   -0.003404
C     0.445469    1.252096   -0.091976   -0.234236    0.013874   -0.007636
O    -2.042738   -1.358883    0.057128   -0.040494   -0.095573    0.006863
O     0.389795    2.488292   -0.194828    0.012517   -0.058283    0.005128
H     2.247236   -1.664347    0.199749    1.010363    1.148057   -0.068370
H    -1.589943    1.095530   -0.134404   -0.460799   -1.001693    0.070760
H     2.569196    0.879280   -0.001982    0.223641   -0.247996    0.027015
11
* Frequency(23) 1326.5059
C     1.572521    0.414339    0.008655    0.113655   -0.046402    0.006938
C     1.367652   -0.971563    0.117875    0.211368    0.036145    0.002932
N     0.296050   -1.618033    0.142197   -0.300309   -0.088348   -0.000887
C    -0.900259   -0.927479    0.052130   -0.025380    0.179615   -0.015671
N    -0.790748    0.486472   -0.062795    0.220535    0.114278   -0.003404
C     0.470995    1.250584   -0.091144   -0.234236    0.013874   -0.007636
O    -2.038325   -1.348468    0.056380   -0.040494   -0.095573    0.006863
O     0.388431    2.494644   -0.195387    0.012517   -0.058283    0.005128
H     2.137133   -1.789455    0.207199    1.010363    1.148057   -0.068370
H    -1.539728    1.204689   -0.142115   -0.460799   -1.001693    0.070760
H     2.544825    0.906305   -0.004926    0.223641   -0.247996    0.027015
11
* Frequency(23) 1326.5059
C     1.562188    0.418558    0.008024    0.113655   -0.046402    0.006938
C     1.348434   -0.974849    0.117608    0.211368    0.036145    0.002932
N     0.323354   -1.610001    0.142278   -0.300309   -0.088348   -0.000887
C    -0.897951   -0.943810    0.053555   -0.025380    0.179615   -0.015671
N    -0.810800    0.476082   -0.062485    0.220535    0.114278   -0.003404
C     0.492292    1.249323   -0.090450   -0.234236    0.013874   -0.007636
O    -2.034644   -1.339779    0.055756   -0.040494   -0.095573    0.006863
O     0.387293    2.499943   -0.195854    0.012517   -0.058283    0.005128
H     2.045269   -1.893839    0.213415    1.010363    1.148057   -0.068370
H    -1.497832    1.295764   -0.148549   -0.460799   -1.001693    0.070760
H     2.524491    0.928853   -0.007382    0.223641   -0.247996    0.027015
11
* Frequency(23) 1326.5059
C     1.555025    0.421482    0.007587    0.113655   -0.046402    0.006938
C     1.335114   -0.977127    0.117423    0.211368    0.036145    0.002932
N     0.342279   -1.604433    0.142334   -0.300309   -0.088348   -0.000887
C    -0.896352   -0.955129    0.054542   -0.025380    0.179615   -0.015671
N    -0.824697    0.468881   -0.062271    0.220535    0.114278   -0.003404
C     0.507053    1.248448   -0.089969   -0.234236    0.013874   -0.007636
O    -2.032092   -1.333756    0.055323   -0.040494   -0.095573    0.006863
O     0.386504    2.503616   -0.196177    0.012517   -0.058283    0.005128
H     1.981599   -1.966186    0.217724    1.010363    1.148057   -0.068370
H    -1.468793    1.358888   -0.153008   -0.460799   -1.001693    0.070760
H     2.510398    0.944481   -0.009085    0.223641   -0.247996    0.027015
11
* Frequency(23) 1326.5059
C     1.551811    0.422795    0.007390    0.113655   -0.046402    0.006938
C     1.329136   -0.978149    0.117340    0.211368    0.036145    0.002932
N     0.350773   -1.601934    0.142359   -0.300309   -0.088348   -0.000887
C    -0.895634   -0.960209    0.054986   -0.025380    0.179615   -0.015671
N    -0.830935    0.465648   -0.062175    0.220535    0.114278   -0.003404
C     0.513678    1.248056   -0.089753   -0.234236    0.013874   -0.007636
O    -2.030946   -1.331053    0.055129   -0.040494   -0.095573    0.006863
O     0.386150    2.505264   -0.196322    0.012517   -0.058283    0.005128
H     1.953022   -1.998658    0.219658    1.010363    1.148057   -0.068370
H    -1.455760    1.387220   -0.155009   -0.460799   -1.001693    0.070760
H     2.504072    0.951496   -0.009849    0.223641   -0.247996    0.027015
11
* Frequency(23) 1326.5059
C     1.552892    0.422353    0.007456    0.113655   -0.046402    0.006938
C     1.331147   -0.977805    0.117368    0.211368    0.036145    0.002932
N     0.347916   -1.602775    0.142351   -0.300309   -0.088348   -0.000887
C    -0.895875   -0.958500    0.054837   -0.025380    0.179615   -0.015671
N    -0.828837    0.466736   -0.062207    0.220535    0.114278   -0.003404
C     0.511449    1.248188   -0.089825   -0.234236    0.013874   -0.007636
O    -2.031332   -1.331962    0.055195   -0.040494   -0.095573    0.006863
O     0.386269    2.504710   -0.196273    0.012517   -0.058283    0.005128
H     1.962635   -1.987735    0.219007    1.010363    1.148057   -0.068370
H    -1.460144    1.377689   -0.154336   -0.460799   -1.001693    0.070760
H     2.506200    0.949136   -0.009592    0.223641   -0.247996    0.027015
11
* Frequency(23) 1326.5059
C     1.558152    0.420206    0.007778    0.113655   -0.046402    0.006938
C     1.340930   -0.976133    0.117504    0.211368    0.036145    0.002932
N     0.334017   -1.606864    0.142310   -0.300309   -0.088348   -0.000887
C    -0.897050   -0.950187    0.054111   -0.025380    0.179615   -0.015671
N    -0.818630    0.472025   -0.062364    0.220535    0.114278   -0.003404
C     0.500608    1.248830   -0.090179   -0.234236    0.013874   -0.007636
O    -2.033206   -1.336385    0.055512   -0.040494   -0.095573    0.006863
O     0.386848    2.502012   -0.196036    0.012517   -0.058283    0.005128
H     2.009396   -1.934600    0.215843    1.010363    1.148057   -0.068370
H    -1.481471    1.331329   -0.151061   -0.460799   -1.001693    0.070760
H     2.516551    0.937658   -0.008342    0.223641   -0.247996    0.027015
11
* Frequency(23) 1326.5059
C     1.567021    0.416585    0.008319    0.113655   -0.046402    0.006938
C     1.357423   -0.973312    0.117733    0.211368    0.036145    0.002932
N     0.310583   -1.613758    0.142240   -0.300309   -0.088348   -0.000887
C    -0.899030   -0.936171    0.052888   -0.025380    0.179615   -0.015671
N    -0.801421    0.480942   -0.062630    0.220535    0.114278   -0.003404
C     0.482330    1.249913   -0.090775   -0.234236    0.013874   -0.007636
O    -2.036366   -1.343843    0.056048   -0.040494   -0.095573    0.006863
O     0.387825    2.497464   -0.195635    0.012517   -0.058283    0.005128
H     2.088239   -1.845013    0.210508    1.010363    1.148057   -0.068370
H    -1.517429    1.253163   -0.145539   -0.460799   -1.001693    0.070760
H     2.534002    0.918306   -0.006234    0.223641   -0.247996    0.027015
11
* Frequency(23) 1326.5059
C     1.578538    0.411883    0.009022    0.113655   -0.046402    0.006938
C     1.378841   -0.969649    0.118030    0.211368    0.036145    0.002932
N     0.280152   -1.622710    0.142150   -0.300309   -0.088348   -0.000887
C    -0.901602   -0.917971    0.051301   -0.025380    0.179615   -0.015671
N    -0.779074    0.492522   -0.062975    0.220535    0.114278   -0.003404
C     0.458595    1.251319   -0.091548   -0.234236    0.013874   -0.007636
O    -2.040469   -1.353528    0.056743   -0.040494   -0.095573    0.006863
O     0.389094    2.491558   -0.195116    0.012517   -0.058283    0.005128
H     2.190619   -1.728681    0.203580    1.010363    1.148057   -0.068370
H    -1.564121    1.151662   -0.138369   -0.460799   -1.001693    0.070760
H     2.556664    0.893177   -0.003496    0.223641   -0.247996    0.027015
11
* Frequency(23) 1326.5059
C     1.591454    0.406609    0.009810    0.113655   -0.046402    0.006938
C     1.402862   -0.965542    0.118363    0.211368    0.036145    0.002932
N     0.246024   -1.632751    0.142050   -0.300309   -0.088348   -0.000887
C    -0.904486   -0.897558    0.049520   -0.025380    0.179615   -0.015671
N    -0.754011    0.505509   -0.063362    0.220535    0.114278   -0.003404
C     0.431975    1.252895   -0.092416   -0.234236    0.013874   -0.007636
O    -2.045071   -1.364389    0.057523   -0.040494   -0.095573    0.006863
O     0.390516    2.484935   -0.194533    0.012517   -0.058283    0.005128
H     2.305441   -1.598210    0.195810    1.010363    1.148057   -0.068370
H    -1.616489    1.037825   -0.130328   -0.460799   -1.001693    0.070760
H     2.582079    0.864994   -0.000426    0.223641   -0.247996    0.027015
