11
* (null), Energy   -1000.0000000
C     1.591454    0.406609    0.009810   -0.158401   -0.074257    0.001725
C     1.402862   -0.965542    0.118363   -0.008444    0.015858   -0.001548
N     0.246024   -1.632751    0.142050    0.001188   -0.000087    0.000040
C    -0.904486   -0.897558    0.049520    0.000753    0.000792   -0.000045
N    -0.754011    0.505509   -0.063362    0.000688    0.000748   -0.000044
C     0.431975    1.252895   -0.092416    0.004857   -0.007821    0.000781
O    -2.045071   -1.364389    0.057523   -0.000178   -0.000136    0.000006
O     0.390516    2.484935   -0.194533   -0.000442    0.001917   -0.000169
H     2.305441   -1.598210    0.195810    0.099442   -0.083822    0.009704
H    -1.616489    1.037825   -0.130328   -0.002015   -0.001232    0.000044
H     2.582079    0.864994   -0.000426    1.807580    0.827218   -0.017982
11
* Frequency(31) 3193.8528
C     1.573453    0.398170    0.010007   -0.158401   -0.074257    0.001725
C     1.401902   -0.963740    0.118187   -0.008444    0.015858   -0.001548
N     0.246159   -1.632761    0.142054    0.001188   -0.000087    0.000040
C    -0.904401   -0.897468    0.049514    0.000753    0.000792   -0.000045
N    -0.753933    0.505594   -0.063367    0.000688    0.000748   -0.000044
C     0.432527    1.252006   -0.092327    0.004857   -0.007821    0.000781
O    -2.045091   -1.364404    0.057524   -0.000178   -0.000136    0.000006
O     0.390466    2.485153   -0.194552   -0.000442    0.001917   -0.000169
H     2.316742   -1.607736    0.196913    0.099442   -0.083822    0.009704
H    -1.616718    1.037685   -0.130323   -0.002015   -0.001232    0.000044
H     2.787501    0.959003   -0.002470    1.807580    0.827218   -0.017982
11
* Frequency(31) 3193.8528
C     1.557402    0.390646    0.010181   -0.158401   -0.074257    0.001725
C     1.401047   -0.962133    0.118031   -0.008444    0.015858   -0.001548
N     0.246279   -1.632769    0.142058    0.001188   -0.000087    0.000040
C    -0.904325   -0.897388    0.049510    0.000753    0.000792   -0.000045
N    -0.753863    0.505670   -0.063371    0.000688    0.000748   -0.000044
C     0.433019    1.251214   -0.092248    0.004857   -0.007821    0.000781
O    -2.045109   -1.364418    0.057524   -0.000178   -0.000136    0.000006
O     0.390421    2.485347   -0.194569   -0.000442    0.001917   -0.000169
H     2.326819   -1.616229    0.197896    0.099442   -0.083822    0.009704
H    -1.616922    1.037560   -0.130318   -0.002015   -0.001232    0.000044
H     2.970663    1.042824   -0.004292    1.807580    0.827218   -0.017982
11
* Frequency(31) 3193.8528
C     1.545041    0.384851    0.010316   -0.158401   -0.074257    0.001725
C     1.400388   -0.960895    0.117910   -0.008444    0.015858   -0.001548
N     0.246372   -1.632776    0.142061    0.001188   -0.000087    0.000040
C    -0.904266   -0.897326    0.049506    0.000753    0.000792   -0.000045
N    -0.753810    0.505728   -0.063375    0.000688    0.000748   -0.000044
C     0.433398    1.250604   -0.092187    0.004857   -0.007821    0.000781
O    -2.045123   -1.364429    0.057525   -0.000178   -0.000136    0.000006
O     0.390387    2.485496   -0.194583   -0.000442    0.001917   -0.000169
H     2.334578   -1.622770    0.198653    0.099442   -0.083822    0.009704
H    -1.617079    1.037464   -0.130315   -0.002015   -0.001232    0.000044
H     3.111715    1.107375   -0.005695    1.807580    0.827218   -0.017982
11
* Frequency(31) 3193.8528
C     1.537710    0.381415    0.010396   -0.158401   -0.074257    0.001725
C     1.399997   -0.960161    0.117838   -0.008444    0.015858   -0.001548
N     0.246427   -1.632780    0.142063    0.001188   -0.000087    0.000040
C    -0.904231   -0.897290    0.049504    0.000753    0.000792   -0.000045
N    -0.753778    0.505763   -0.063377    0.000688    0.000748   -0.000044
C     0.433623    1.250242   -0.092151    0.004857   -0.007821    0.000781
O    -2.045131   -1.364435    0.057525   -0.000178   -0.000136    0.000006
O     0.390366    2.485585   -0.194590   -0.000442    0.001917   -0.000169
H     2.339181   -1.626650    0.199103    0.099442   -0.083822    0.009704
H    -1.617172    1.037407   -0.130313   -0.002015   -0.001232    0.000044
H     3.195373    1.145660   -0.006527    1.807580    0.827218   -0.017982
11
* Frequency(31) 3193.8528
C     1.536203    0.380708    0.010412   -0.158401   -0.074257    0.001725
C     1.399917   -0.960010    0.117823   -0.008444    0.015858   -0.001548
N     0.246438   -1.632781    0.142063    0.001188   -0.000087    0.000040
C    -0.904224   -0.897282    0.049504    0.000753    0.000792   -0.000045
N    -0.753771    0.505770   -0.063377    0.000688    0.000748   -0.000044
C     0.433669    1.250167   -0.092144    0.004857   -0.007821    0.000781
O    -2.045133   -1.364436    0.057525   -0.000178   -0.000136    0.000006
O     0.390362    2.485603   -0.194592   -0.000442    0.001917   -0.000169
H     2.340127   -1.627447    0.199195    0.099442   -0.083822    0.009704
H    -1.617192    1.037395   -0.130312   -0.002015   -0.001232    0.000044
H     3.212572    1.153531   -0.006698    1.807580    0.827218   -0.017982
11
* Frequency(31) 3193.8528
C     1.540683    0.382808    0.010363   -0.158401   -0.074257    0.001725
C     1.400155   -0.960459    0.117867   -0.008444    0.015858   -0.001548
N     0.246405   -1.632779    0.142062    0.001188   -0.000087    0.000040
C    -0.904245   -0.897304    0.049505    0.000753    0.000792   -0.000045
N    -0.753791    0.505749   -0.063376    0.000688    0.000748   -0.000044
C     0.433532    1.250389   -0.092166    0.004857   -0.007821    0.000781
O    -2.045128   -1.364433    0.057525   -0.000178   -0.000136    0.000006
O     0.390374    2.485549   -0.194587   -0.000442    0.001917   -0.000169
H     2.337314   -1.625077    0.198920    0.099442   -0.083822    0.009704
H    -1.617135    1.037430   -0.130314   -0.002015   -0.001232    0.000044
H     3.161446    1.130134   -0.006190    1.807580    0.827218   -0.017982
11
* Frequency(31) 3193.8528
C     1.550665    0.387488    0.010255   -0.158401   -0.074257    0.001725
C     1.400688   -0.961458    0.117965   -0.008444    0.015858   -0.001548
N     0.246330   -1.632773    0.142060    0.001188   -0.000087    0.000040
C    -0.904293   -0.897354    0.049508    0.000753    0.000792   -0.000045
N    -0.753834    0.505702   -0.063373    0.000688    0.000748   -0.000044
C     0.433226    1.250881   -0.092215    0.004857   -0.007821    0.000781
O    -2.045117   -1.364424    0.057525   -0.000178   -0.000136    0.000006
O     0.390402    2.485428   -0.194577   -0.000442    0.001917   -0.000169
H     2.331048   -1.619794    0.198309    0.099442   -0.083822    0.009704
H    -1.617008    1.037507   -0.130316   -0.002015   -0.001232    0.000044
H     3.047537    1.078005   -0.005056    1.807580    0.827218   -0.017982
11
* Frequency(31) 3193.8528
C     1.565068    0.394239    0.010098   -0.158401   -0.074257    0.001725
C     1.401455   -0.962900    0.118105   -0.008444    0.015858   -0.001548
N     0.246222   -1.632765    0.142056    0.001188   -0.000087    0.000040
C    -0.904361   -0.897426    0.049512    0.000753    0.000792   -0.000045
N    -0.753897    0.505634   -0.063369    0.000688    0.000748   -0.000044
C     0.432784    1.251592   -0.092286    0.004857   -0.007821    0.000781
O    -2.045100   -1.364412    0.057524   -0.000178   -0.000136    0.000006
O     0.390442    2.485254   -0.194561   -0.000442    0.001917   -0.000169
H     2.322006   -1.612173    0.197427    0.099442   -0.083822    0.009704
H    -1.616824    1.037620   -0.130320   -0.002015   -0.001232    0.000044
H     2.883189    1.002793   -0.003421    1.807580    0.827218   -0.017982
11
* Frequency(31) 3193.8528
C     1.582329    0.402331    0.009910   -0.158401   -0.074257    0.001725
C     1.402376   -0.964628    0.118274   -0.008444    0.015858   -0.001548
N     0.246092   -1.632756    0.142052    0.001188   -0.000087    0.000040
C    -0.904443   -0.897513    0.049517    0.000753    0.000792   -0.000045
N    -0.753972    0.505552   -0.063364    0.000688    0.000748   -0.000044
C     0.432255    1.252445   -0.092371    0.004857   -0.007821    0.000781
O    -2.045081   -1.364397    0.057523   -0.000178   -0.000136    0.000006
O     0.390491    2.485045   -0.194543   -0.000442    0.001917   -0.000169
H     2.311170   -1.603039    0.196369    0.099442   -0.083822    0.009704
H    -1.616605    1.037754   -0.130325   -0.002015   -0.001232    0.000044
H     2.686211    0.912648   -0.001462    1.807580    0.827218   -0.017982
11
* Frequency(31) 3193.8528
C     1.600580    0.410887    0.009711   -0.158401   -0.074257    0.001725
C     1.403348   -0.966455    0.118452   -0.008444    0.015858   -0.001548
N     0.245955   -1.632746    0.142047    0.001188   -0.000087    0.000040
C    -0.904530   -0.897604    0.049522    0.000753    0.000792   -0.000045
N    -0.754051    0.505466   -0.063359    0.000688    0.000748   -0.000044
C     0.431695    1.253346   -0.092461    0.004857   -0.007821    0.000781
O    -2.045061   -1.364381    0.057523   -0.000178   -0.000136    0.000006
O     0.390542    2.484824   -0.194523   -0.000442    0.001917   -0.000169
H     2.299712   -1.593381    0.195251    0.099442   -0.083822    0.009704
H    -1.616373    1.037896   -0.130330   -0.002015   -0.001232    0.000044
H     2.477948    0.817339    0.000610    1.807580    0.827218   -0.017982
11
* Frequency(31) 3193.8528
C     1.617841    0.418979    0.009523   -0.158401   -0.074257    0.001725
C     1.404269   -0.968183    0.118621   -0.008444    0.015858   -0.001548
N     0.245826   -1.632736    0.142043    0.001188   -0.000087    0.000040
C    -0.904612   -0.897690    0.049527    0.000753    0.000792   -0.000045
N    -0.754126    0.505385   -0.063354    0.000688    0.000748   -0.000044
C     0.431166    1.254198   -0.092546    0.004857   -0.007821    0.000781
O    -2.045041   -1.364366    0.057522   -0.000178   -0.000136    0.000006
O     0.390590    2.484616   -0.194505   -0.000442    0.001917   -0.000169
H     2.288876   -1.584247    0.194193    0.099442   -0.083822    0.009704
H    -1.616153    1.038030   -0.130335   -0.002015   -0.001232    0.000044
H     2.280970    0.727194    0.002570    1.807580    0.827218   -0.017982
11
* Frequency(31) 3193.8528
C     1.632243    0.425731    0.009366   -0.158401   -0.074257    0.001725
C     1.405036   -0.969625    0.118762   -0.008444    0.015858   -0.001548
N     0.245718   -1.632728    0.142039    0.001188   -0.000087    0.000040
C    -0.904680   -0.897762    0.049531    0.000753    0.000792   -0.000045
N    -0.754188    0.505317   -0.063350    0.000688    0.000748   -0.000044
C     0.430724    1.254909   -0.092617    0.004857   -0.007821    0.000781
O    -2.045025   -1.364354    0.057521   -0.000178   -0.000136    0.000006
O     0.390630    2.484441   -0.194490   -0.000442    0.001917   -0.000169
H     2.279834   -1.576626    0.193311    0.099442   -0.083822    0.009704
H    -1.615970    1.038142   -0.130339   -0.002015   -0.001232    0.000044
H     2.116621    0.651982    0.004205    1.807580    0.827218   -0.017982
11
* Frequency(31) 3193.8528
C     1.642225    0.430410    0.009258   -0.158401   -0.074257    0.001725
C     1.405569   -0.970625    0.118859   -0.008444    0.015858   -0.001548
N     0.245643   -1.632723    0.142037    0.001188   -0.000087    0.000040
C    -0.904728   -0.897812    0.049534    0.000753    0.000792   -0.000045
N    -0.754232    0.505269   -0.063348    0.000688    0.000748   -0.000044
C     0.430418    1.255402   -0.092666    0.004857   -0.007821    0.000781
O    -2.045014   -1.364345    0.057521   -0.000178   -0.000136    0.000006
O     0.390658    2.484320   -0.194479   -0.000442    0.001917   -0.000169
H     2.273568   -1.571343    0.192700    0.099442   -0.083822    0.009704
H    -1.615843    1.038220   -0.130342   -0.002015   -0.001232    0.000044
H     2.002712    0.599853    0.005338    1.807580    0.827218   -0.017982
11
* Frequency(31) 3193.8528
C     1.646705    0.432510    0.009209   -0.158401   -0.074257    0.001725
C     1.405807   -0.971073    0.118903   -0.008444    0.015858   -0.001548
N     0.245610   -1.632720    0.142036    0.001188   -0.000087    0.000040
C    -0.904749   -0.897835    0.049535    0.000753    0.000792   -0.000045
N    -0.754251    0.505248   -0.063346    0.000688    0.000748   -0.000044
C     0.430281    1.255623   -0.092688    0.004857   -0.007821    0.000781
O    -2.045009   -1.364342    0.057521   -0.000178   -0.000136    0.000006
O     0.390670    2.484266   -0.194474   -0.000442    0.001917   -0.000169
H     2.270755   -1.568973    0.192425    0.099442   -0.083822    0.009704
H    -1.615786    1.038255   -0.130343   -0.002015   -0.001232    0.000044
H     1.951587    0.576456    0.005846    1.807580    0.827218   -0.017982
11
* Frequency(31) 3193.8528
C     1.645198    0.431804    0.009225   -0.158401   -0.074257    0.001725
C     1.405727   -0.970922    0.118888   -0.008444    0.015858   -0.001548
N     0.245621   -1.632721    0.142036    0.001188   -0.000087    0.000040
C    -0.904742   -0.897827    0.049535    0.000753    0.000792   -0.000045
N    -0.754245    0.505255   -0.063347    0.000688    0.000748   -0.000044
C     0.430327    1.255549   -0.092681    0.004857   -0.007821    0.000781
O    -2.045010   -1.364343    0.057521   -0.000178   -0.000136    0.000006
O     0.390666    2.484285   -0.194476   -0.000442    0.001917   -0.000169
H     2.271701   -1.569770    0.192517    0.099442   -0.083822    0.009704
H    -1.615805    1.038243   -0.130343   -0.002015   -0.001232    0.000044
H     1.968785    0.584327    0.005675    1.807580    0.827218   -0.017982
11
* Frequency(31) 3193.8528
C     1.637867    0.428367    0.009305   -0.158401   -0.074257    0.001725
C     1.405336   -0.970188    0.118817   -0.008444    0.015858   -0.001548
N     0.245676   -1.632725    0.142038    0.001188   -0.000087    0.000040
C    -0.904707   -0.897790    0.049533    0.000753    0.000792   -0.000045
N    -0.754213    0.505290   -0.063349    0.000688    0.000748   -0.000044
C     0.430552    1.255187   -0.092645    0.004857   -0.007821    0.000781
O    -2.045019   -1.364349    0.057521   -0.000178   -0.000136    0.000006
O     0.390646    2.484373   -0.194484   -0.000442    0.001917   -0.000169
H     2.276304   -1.573650    0.192967    0.099442   -0.083822    0.009704
H    -1.615899    1.038186   -0.130341   -0.002015   -0.001232    0.000044
H     2.052443    0.622612    0.004843    1.807580    0.827218   -0.017982
11
* Frequency(31) 3193.8528
C     1.625507    0.422573    0.009440   -0.158401   -0.074257    0.001725
C     1.404677   -0.968951    0.118696   -0.008444    0.015858   -0.001548
N     0.245769   -1.632732    0.142041    0.001188   -0.000087    0.000040
C    -0.904648   -0.897729    0.049529    0.000753    0.000792   -0.000045
N    -0.754159    0.505348   -0.063352    0.000688    0.000748   -0.000044
C     0.430931    1.254576   -0.092584    0.004857   -0.007821    0.000781
O    -2.045032   -1.364360    0.057522   -0.000178   -0.000136    0.000006
O     0.390611    2.484523   -0.194497   -0.000442    0.001917   -0.000169
H     2.284063   -1.580191    0.193724    0.099442   -0.083822    0.009704
H    -1.616056    1.038090   -0.130337   -0.002015   -0.001232    0.000044
H     2.193496    0.687163    0.003440    1.807580    0.827218   -0.017982
11
* Frequency(31) 3193.8528
C     1.609456    0.415048    0.009614   -0.158401   -0.074257    0.001725
C     1.403822   -0.967344    0.118539   -0.008444    0.015858   -0.001548
N     0.245889   -1.632741    0.142045    0.001188   -0.000087    0.000040
C    -0.904572   -0.897648    0.049525    0.000753    0.000792   -0.000045
N    -0.754089    0.505424   -0.063357    0.000688    0.000748   -0.000044
C     0.431423    1.253784   -0.092505    0.004857   -0.007821    0.000781
O    -2.045051   -1.364374    0.057522   -0.000178   -0.000136    0.000006
O     0.390566    2.484717   -0.194514   -0.000442    0.001917   -0.000169
H     2.294140   -1.588684    0.194707    0.099442   -0.083822    0.009704
H    -1.616260    1.037965   -0.130333   -0.002015   -0.001232    0.000044
H     2.376657    0.770985    0.001618    1.807580    0.827218   -0.017982
11
* Frequency(31) 3193.8528
C     1.591454    0.406609    0.009810   -0.158401   -0.074257    0.001725
C     1.402862   -0.965542    0.118363   -0.008444    0.015858   -0.001548
N     0.246024   -1.632751    0.142050    0.001188   -0.000087    0.000040
C    -0.904486   -0.897558    0.049520    0.000753    0.000792   -0.000045
N    -0.754011    0.505509   -0.063362    0.000688    0.000748   -0.000044
C     0.431975    1.252895   -0.092416    0.004857   -0.007821    0.000781
O    -2.045071   -1.364389    0.057523   -0.000178   -0.000136    0.000006
O     0.390516    2.484935   -0.194533   -0.000442    0.001917   -0.000169
H     2.305441   -1.598210    0.195810    0.099442   -0.083822    0.009704
H    -1.616489    1.037825   -0.130328   -0.002015   -0.001232    0.000044
H     2.582079    0.864994   -0.000426    1.807580    0.827218   -0.017982
