11
* (null), Energy   -1000.0000000
C     1.357708    0.575724   -0.019982    0.190856    0.492551   -0.035419
C     1.169529   -0.796569    0.088269   -0.588144   -0.842301    0.053654
N     0.012816   -1.463992    0.112098    0.346325    0.268110   -0.012812
C    -1.137586   -0.728374    0.019659    0.060702   -0.112782    0.010975
N    -0.987337    0.674496   -0.092673    0.113421    0.144659   -0.008809
C     0.198487    1.422060   -0.121503   -0.259868    0.050930   -0.011475
O    -2.278352   -1.195100    0.027552   -0.086663   -0.006321   -0.001813
O     0.157268    2.653978   -0.224886    0.047311   -0.118366    0.011122
H     2.071990   -1.429182    0.165269    0.941397    1.100040   -0.065491
H    -1.849786    1.206815   -0.161518   -0.036307   -0.098255    0.007151
H     2.348454    1.034025   -0.030636    0.438114    0.145999   -0.000296
11
* Frequency(27) 1598.8594
C     1.379398    0.631700   -0.024007    0.190856    0.492551   -0.035419
C     1.102689   -0.892292    0.094367   -0.588144   -0.842301    0.053654
N     0.052174   -1.433523    0.110642    0.346325    0.268110   -0.012812
C    -1.130688   -0.741191    0.020906    0.060702   -0.112782    0.010975
N    -0.974448    0.690936   -0.093674    0.113421    0.144659   -0.008809
C     0.168954    1.427848   -0.122807   -0.259868    0.050930   -0.011475
O    -2.288201   -1.195819    0.027346   -0.086663   -0.006321   -0.001813
O     0.162644    2.640526   -0.223622    0.047311   -0.118366    0.011122
H     2.178975   -1.304168    0.157827    0.941397    1.100040   -0.065491
H    -1.853912    1.195648   -0.160706   -0.036307   -0.098255    0.007151
H     2.398243    1.050617   -0.030670    0.438114    0.145999   -0.000296
11
* Frequency(27) 1598.8594
C     1.398737    0.681610   -0.027596    0.190856    0.492551   -0.035419
C     1.043093   -0.977642    0.099803   -0.588144   -0.842301    0.053654
N     0.087267   -1.406356    0.109344    0.346325    0.268110   -0.012812
C    -1.124537   -0.752619    0.022018    0.060702   -0.112782    0.010975
N    -0.962955    0.705594   -0.094566    0.113421    0.144659   -0.008809
C     0.142622    1.433009   -0.123970   -0.259868    0.050930   -0.011475
O    -2.296983   -1.196459    0.027162   -0.086663   -0.006321   -0.001813
O     0.167438    2.628532   -0.222495    0.047311   -0.118366    0.011122
H     2.274367   -1.192701    0.151191    0.941397    1.100040   -0.065491
H    -1.857591    1.185692   -0.159981   -0.036307   -0.098255    0.007151
H     2.442637    1.065411   -0.030700    0.438114    0.145999   -0.000296
11
* Frequency(27) 1598.8594
C     1.413630    0.720046   -0.030360    0.190856    0.492551   -0.035419
C     0.997198   -1.043370    0.103990   -0.588144   -0.842301    0.053654
N     0.114292   -1.385434    0.108344    0.346325    0.268110   -0.012812
C    -1.119800   -0.761420    0.022875    0.060702   -0.112782    0.010975
N    -0.954104    0.716882   -0.095254    0.113421    0.144659   -0.008809
C     0.122343    1.436983   -0.124865   -0.259868    0.050930   -0.011475
O    -2.303745   -1.196952    0.027021   -0.086663   -0.006321   -0.001813
O     0.171130    2.619296   -0.221627    0.047311   -0.118366    0.011122
H     2.347828   -1.106861    0.146080    0.941397    1.100040   -0.065491
H    -1.860424    1.178025   -0.159423   -0.036307   -0.098255    0.007151
H     2.476825    1.076803   -0.030723    0.438114    0.145999   -0.000296
11
* Frequency(27) 1598.8594
C     1.422463    0.742842   -0.031999    0.190856    0.492551   -0.035419
C     0.969978   -1.082354    0.106474   -0.588144   -0.842301    0.053654
N     0.130321   -1.373025    0.107751    0.346325    0.268110   -0.012812
C    -1.116990   -0.766640    0.023382    0.060702   -0.112782    0.010975
N    -0.948855    0.723578   -0.095662    0.113421    0.144659   -0.008809
C     0.110316    1.439340   -0.125396   -0.259868    0.050930   -0.011475
O    -2.307756   -1.197245    0.026937   -0.086663   -0.006321   -0.001813
O     0.173320    2.613818   -0.221112    0.047311   -0.118366    0.011122
H     2.391397   -1.055949    0.143049    0.941397    1.100040   -0.065491
H    -1.862104    1.173477   -0.159092   -0.036307   -0.098255    0.007151
H     2.497102    1.083560   -0.030737    0.438114    0.145999   -0.000296
11
* Frequency(27) 1598.8594
C     1.424279    0.747528   -0.032336    0.190856    0.492551   -0.035419
C     0.964382   -1.090368    0.106984   -0.588144   -0.842301    0.053654
N     0.133616   -1.370474    0.107629    0.346325    0.268110   -0.012812
C    -1.116413   -0.767713    0.023487    0.060702   -0.112782    0.010975
N    -0.947776    0.724954   -0.095745    0.113421    0.144659   -0.008809
C     0.107843    1.439825   -0.125505   -0.259868    0.050930   -0.011475
O    -2.308581   -1.197305    0.026920   -0.086663   -0.006321   -0.001813
O     0.173770    2.612692   -0.221006    0.047311   -0.118366    0.011122
H     2.400354   -1.045483    0.142426    0.941397    1.100040   -0.065491
H    -1.862450    1.172543   -0.159024   -0.036307   -0.098255    0.007151
H     2.501270    1.084950   -0.030739    0.438114    0.145999   -0.000296
11
* Frequency(27) 1598.8594
C     1.418881    0.733597   -0.031334    0.190856    0.492551   -0.035419
C     0.981017   -1.066544    0.105466   -0.588144   -0.842301    0.053654
N     0.123820   -1.378058    0.107991    0.346325    0.268110   -0.012812
C    -1.118130   -0.764523    0.023176    0.060702   -0.112782    0.010975
N    -0.950984    0.720862   -0.095496    0.113421    0.144659   -0.008809
C     0.115193    1.438384   -0.125181   -0.259868    0.050930   -0.011475
O    -2.306130   -1.197126    0.026971   -0.086663   -0.006321   -0.001813
O     0.172432    2.616039   -0.221321    0.047311   -0.118366    0.011122
H     2.373728   -1.076596    0.144278    0.941397    1.100040   -0.065491
H    -1.861423    1.175322   -0.159226   -0.036307   -0.098255    0.007151
H     2.488878    1.080820   -0.030731    0.438114    0.145999   -0.000296
11
* Frequency(27) 1598.8594
C     1.406854    0.702558   -0.029102    0.190856    0.492551   -0.035419
C     1.018080   -1.013465    0.102085   -0.588144   -0.842301    0.053654
N     0.101996   -1.394953    0.108799    0.346325    0.268110   -0.012812
C    -1.121955   -0.757416    0.022485    0.060702   -0.112782    0.010975
N    -0.958131    0.711746   -0.094941    0.113421    0.144659   -0.008809
C     0.131570    1.435175   -0.124458   -0.259868    0.050930   -0.011475
O    -2.300668   -1.196728    0.027085   -0.086663   -0.006321   -0.001813
O     0.169450    2.623498   -0.222022    0.047311   -0.118366    0.011122
H     2.314403   -1.145918    0.148405    0.941397    1.100040   -0.065491
H    -1.859135    1.181513   -0.159677   -0.036307   -0.098255    0.007151
H     2.461270    1.071620   -0.030712    0.438114    0.145999   -0.000296
11
* Frequency(27) 1598.8594
C     1.389501    0.657774   -0.025882    0.190856    0.492551   -0.035419
C     1.071555   -0.936881    0.097207   -0.588144   -0.842301    0.053654
N     0.070507   -1.419330    0.109964    0.346325    0.268110   -0.012812
C    -1.127474   -0.747161    0.021487    0.060702   -0.112782    0.010975
N    -0.968444    0.698594   -0.094140    0.113421    0.144659   -0.008809
C     0.155197    1.430544   -0.123414   -0.259868    0.050930   -0.011475
O    -2.292789   -1.196153    0.027250   -0.086663   -0.006321   -0.001813
O     0.165149    2.634260   -0.223033    0.047311   -0.118366    0.011122
H     2.228810   -1.245936    0.154360    0.941397    1.100040   -0.065491
H    -1.855834    1.190447   -0.160327   -0.036307   -0.098255    0.007151
H     2.421436    1.058345   -0.030685    0.438114    0.145999   -0.000296
11
* Frequency(27) 1598.8594
C     1.368703    0.604099   -0.022022    0.190856    0.492551   -0.035419
C     1.135647   -0.845093    0.091360   -0.588144   -0.842301    0.053654
N     0.032767   -1.448547    0.111360    0.346325    0.268110   -0.012812
C    -1.134089   -0.734871    0.020291    0.060702   -0.112782    0.010975
N    -0.980803    0.682830   -0.093180    0.113421    0.144659   -0.008809
C     0.183516    1.424994   -0.122164   -0.259868    0.050930   -0.011475
O    -2.283345   -1.195464    0.027447   -0.086663   -0.006321   -0.001813
O     0.159993    2.647159   -0.224245    0.047311   -0.118366    0.011122
H     2.126223   -1.365811    0.161497    0.941397    1.100040   -0.065491
H    -1.851877    1.201154   -0.161106   -0.036307   -0.098255    0.007151
H     2.373693    1.042435   -0.030653    0.438114    0.145999   -0.000296
11
* Frequency(27) 1598.8594
C     1.346713    0.547349   -0.017941    0.190856    0.492551   -0.035419
C     1.203411   -0.748046    0.085178   -0.588144   -0.842301    0.053654
N    -0.007135   -1.479438    0.112836    0.346325    0.268110   -0.012812
C    -1.141083   -0.721877    0.019027    0.060702   -0.112782    0.010975
N    -0.993871    0.666163   -0.092165    0.113421    0.144659   -0.008809
C     0.213457    1.419126   -0.120842   -0.259868    0.050930   -0.011475
O    -2.273360   -1.194736    0.027656   -0.086663   -0.006321   -0.001813
O     0.154542    2.660797   -0.225526    0.047311   -0.118366    0.011122
H     2.017758   -1.492553    0.169042    0.941397    1.100040   -0.065491
H    -1.847694    1.212475   -0.161930   -0.036307   -0.098255    0.007151
H     2.323215    1.025614   -0.030619    0.438114    0.145999   -0.000296
11
* Frequency(27) 1598.8594
C     1.325915    0.493674   -0.014082    0.190856    0.492551   -0.035419
C     1.267503   -0.656258    0.079331   -0.588144   -0.842301    0.053654
N    -0.044875   -1.508655    0.114232    0.346325    0.268110   -0.012812
C    -1.147698   -0.709587    0.017831    0.060702   -0.112782    0.010975
N    -1.006231    0.650399   -0.091205    0.113421    0.144659   -0.008809
C     0.241776    1.413576   -0.119591   -0.259868    0.050930   -0.011475
O    -2.263916   -1.194047    0.027854   -0.086663   -0.006321   -0.001813
O     0.149386    2.673696   -0.226738    0.047311   -0.118366    0.011122
H     1.915171   -1.612428    0.176179    0.941397    1.100040   -0.065491
H    -1.843738    1.223182   -0.162710   -0.036307   -0.098255    0.007151
H     2.275472    1.009704   -0.030587    0.438114    0.145999   -0.000296
11
* Frequency(27) 1598.8594
C     1.308562    0.448891   -0.010861    0.190856    0.492551   -0.035419
C     1.320978   -0.579674    0.074453   -0.588144   -0.842301    0.053654
N    -0.076364   -1.533032    0.115397    0.346325    0.268110   -0.012812
C    -1.153217   -0.699332    0.016833    0.060702   -0.112782    0.010975
N    -1.016544    0.637246   -0.090404    0.113421    0.144659   -0.008809
C     0.265404    1.408946   -0.118548   -0.259868    0.050930   -0.011475
O    -2.256036   -1.193472    0.028019   -0.086663   -0.006321   -0.001813
O     0.145085    2.684458   -0.227749    0.047311   -0.118366    0.011122
H     1.829578   -1.712446    0.182133    0.941397    1.100040   -0.065491
H    -1.840436    1.232116   -0.163360   -0.036307   -0.098255    0.007151
H     2.235638    0.996429   -0.030560    0.438114    0.145999   -0.000296
11
* Frequency(27) 1598.8594
C     1.296534    0.417851   -0.008629    0.190856    0.492551   -0.035419
C     1.358041   -0.526595    0.071072   -0.588144   -0.842301    0.053654
N    -0.098188   -1.549927    0.116204    0.346325    0.268110   -0.012812
C    -1.157042   -0.692225    0.016141    0.060702   -0.112782    0.010975
N    -1.023691    0.628130   -0.089849    0.113421    0.144659   -0.008809
C     0.281780    1.405736   -0.117825   -0.259868    0.050930   -0.011475
O    -2.250575   -1.193074    0.028133   -0.086663   -0.006321   -0.001813
O     0.142104    2.691917   -0.228450    0.047311   -0.118366    0.011122
H     1.770253   -1.781767    0.186261    0.941397    1.100040   -0.065491
H    -1.838148    1.238307   -0.163811   -0.036307   -0.098255    0.007151
H     2.208029    0.987229   -0.030541    0.438114    0.145999   -0.000296
11
* Frequency(27) 1598.8594
C     1.291136    0.403920   -0.007627    0.190856    0.492551   -0.035419
C     1.374676   -0.502771    0.069554   -0.588144   -0.842301    0.053654
N    -0.107984   -1.557510    0.116567    0.346325    0.268110   -0.012812
C    -1.158759   -0.689035    0.015831    0.060702   -0.112782    0.010975
N    -1.026899    0.624038   -0.089600    0.113421    0.144659   -0.008809
C     0.289130    1.404296   -0.117500   -0.259868    0.050930   -0.011475
O    -2.248124   -1.192895    0.028184   -0.086663   -0.006321   -0.001813
O     0.140765    2.695264   -0.228765    0.047311   -0.118366    0.011122
H     1.743627   -1.812881    0.188113    0.941397    1.100040   -0.065491
H    -1.837122    1.241086   -0.164013   -0.036307   -0.098255    0.007151
H     2.195638    0.983100   -0.030533    0.438114    0.145999   -0.000296
11
* Frequency(27) 1598.8594
C     1.292952    0.408607   -0.007964    0.190856    0.492551   -0.035419
C     1.369080   -0.510785    0.070065   -0.588144   -0.842301    0.053654
N    -0.104689   -1.554959    0.116445    0.346325    0.268110   -0.012812
C    -1.158181   -0.690108    0.015935    0.060702   -0.112782    0.010975
N    -1.025820    0.625415   -0.089684    0.113421    0.144659   -0.008809
C     0.286657    1.404780   -0.117609   -0.259868    0.050930   -0.011475
O    -2.248948   -1.192955    0.028167   -0.086663   -0.006321   -0.001813
O     0.141216    2.694138   -0.228659    0.047311   -0.118366    0.011122
H     1.752584   -1.802414    0.187490    0.941397    1.100040   -0.065491
H    -1.837467    1.240152   -0.163945   -0.036307   -0.098255    0.007151
H     2.199806    0.984489   -0.030536    0.438114    0.145999   -0.000296
11
* Frequency(27) 1598.8594
C     1.301785    0.431403   -0.009604    0.190856    0.492551   -0.035419
C     1.341860   -0.549768    0.072548   -0.588144   -0.842301    0.053654
N    -0.088660   -1.542551    0.115852    0.346325    0.268110   -0.012812
C    -1.155372   -0.695328    0.016443    0.060702   -0.112782    0.010975
N    -1.020571    0.632110   -0.090092    0.113421    0.144659   -0.008809
C     0.274630    1.407138   -0.118140   -0.259868    0.050930   -0.011475
O    -2.252959   -1.193248    0.028083   -0.086663   -0.006321   -0.001813
O     0.143405    2.688660   -0.228144    0.047311   -0.118366    0.011122
H     1.796153   -1.751503    0.184459    0.941397    1.100040   -0.065491
H    -1.839147    1.235604   -0.163614   -0.036307   -0.098255    0.007151
H     2.220083    0.991246   -0.030549    0.438114    0.145999   -0.000296
11
* Frequency(27) 1598.8594
C     1.316679    0.469838   -0.012367    0.190856    0.492551   -0.035419
C     1.295965   -0.615496    0.076735   -0.588144   -0.842301    0.053654
N    -0.061635   -1.521629    0.114852    0.346325    0.268110   -0.012812
C    -1.150635   -0.704129    0.017299    0.060702   -0.112782    0.010975
N    -1.011720    0.643398   -0.090779    0.113421    0.144659   -0.008809
C     0.254352    1.411112   -0.119036   -0.259868    0.050930   -0.011475
O    -2.259722   -1.193741    0.027942   -0.086663   -0.006321   -0.001813
O     0.147097    2.679424   -0.227276    0.047311   -0.118366    0.011122
H     1.869614   -1.665662    0.179348    0.941397    1.100040   -0.065491
H    -1.841981    1.227937   -0.163056   -0.036307   -0.098255    0.007151
H     2.254271    1.002639   -0.030572    0.438114    0.145999   -0.000296
11
* Frequency(27) 1598.8594
C     1.336018    0.519748   -0.015956    0.190856    0.492551   -0.035419
C     1.236368   -0.700846    0.082172   -0.588144   -0.842301    0.053654
N    -0.026542   -1.494462    0.113554    0.346325    0.268110   -0.012812
C    -1.144484   -0.715557    0.018412    0.060702   -0.112782    0.010975
N    -1.000227    0.658056   -0.091672    0.113421    0.144659   -0.008809
C     0.228019    1.416272   -0.120199   -0.259868    0.050930   -0.011475
O    -2.268504   -1.194382    0.027758   -0.086663   -0.006321   -0.001813
O     0.151891    2.667430   -0.226149    0.047311   -0.118366    0.011122
H     1.965006   -1.554196    0.172712    0.941397    1.100040   -0.065491
H    -1.845659    1.217981   -0.162331   -0.036307   -0.098255    0.007151
H     2.298665    1.017433   -0.030602    0.438114    0.145999   -0.000296
11
* Frequency(27) 1598.8594
C     1.357708    0.575724   -0.019982    0.190856    0.492551   -0.035419
C     1.169529   -0.796569    0.088269   -0.588144   -0.842301    0.053654
N     0.012816   -1.463992    0.112098    0.346325    0.268110   -0.012812
C    -1.137586   -0.728374    0.019659    0.060702   -0.112782    0.010975
N    -0.987337    0.674496   -0.092673    0.113421    0.144659   -0.008809
C     0.198487    1.422060   -0.121503   -0.259868    0.050930   -0.011475
O    -2.278352   -1.195100    0.027552   -0.086663   -0.006321   -0.001813
O     0.157268    2.653978   -0.224886    0.047311   -0.118366    0.011122
H     2.071990   -1.429182    0.165269    0.941397    1.100040   -0.065491
H    -1.849786    1.206815   -0.161518   -0.036307   -0.098255    0.007151
H     2.348454    1.034025   -0.030636    0.438114    0.145999   -0.000296
