11
* (null), Energy   -1000.0000000
C     1.357708    0.575724   -0.019982    0.008225   -0.025523   -0.308660
C     1.169529   -0.796569    0.088269   -0.012914    0.038222    0.464386
N     0.012816   -1.463992    0.112098    0.009324   -0.029117   -0.344011
C    -1.137586   -0.728374    0.019659    0.005428   -0.016040   -0.192884
N    -0.987337    0.674496   -0.092673   -0.003748    0.011654    0.140527
C     0.198487    1.422060   -0.121503    0.006391   -0.018797   -0.231203
O    -2.278352   -1.195100    0.027552   -0.002980    0.009865    0.118210
O     0.157268    2.653978   -0.224886   -0.002346    0.007431    0.084497
H     2.071990   -1.429182    0.165269   -0.043620    0.131787    1.591730
H    -1.849786    1.206815   -0.161518   -0.024703    0.071942    0.868691
H     2.348454    1.034025   -0.030636   -0.009591    0.028204    0.347504
11
* Frequency(9)  443.9429
C     1.358642    0.572824   -0.055059    0.008225   -0.025523   -0.308660
C     1.168061   -0.792226    0.141044   -0.012914    0.038222    0.464386
N     0.013876   -1.467301    0.073003    0.009324   -0.029117   -0.344011
C    -1.136969   -0.730197   -0.002261    0.005428   -0.016040   -0.192884
N    -0.987763    0.675821   -0.076703   -0.003748    0.011654    0.140527
C     0.199213    1.419924   -0.147778    0.006391   -0.018797   -0.231203
O    -2.278691   -1.193979    0.040986   -0.002980    0.009865    0.118210
O     0.157001    2.654823   -0.215283   -0.002346    0.007431    0.084497
H     2.067033   -1.414205    0.346161   -0.043620    0.131787    1.591730
H    -1.852593    1.214990   -0.062796   -0.024703    0.071942    0.868691
H     2.347364    1.037230    0.008856   -0.009591    0.028204    0.347504
11
* Frequency(9)  443.9429
C     1.359476    0.570238   -0.086336    0.008225   -0.025523   -0.308660
C     1.166753   -0.788353    0.188100   -0.012914    0.038222    0.464386
N     0.014820   -1.470252    0.038144    0.009324   -0.029117   -0.344011
C    -1.136419   -0.731822   -0.021806    0.005428   -0.016040   -0.192884
N    -0.988143    0.677001   -0.062463   -0.003748    0.011654    0.140527
C     0.199861    1.418020   -0.171206    0.006391   -0.018797   -0.231203
O    -2.278993   -1.192980    0.052964   -0.002980    0.009865    0.118210
O     0.156763    2.655576   -0.206721   -0.002346    0.007431    0.084497
H     2.062613   -1.400851    0.507451   -0.043620    0.131787    1.591730
H    -1.855096    1.222280    0.025228   -0.024703    0.071942    0.868691
H     2.346392    1.040088    0.044068   -0.009591    0.028204    0.347504
11
* Frequency(9)  443.9429
C     1.360118    0.568246   -0.110422    0.008225   -0.025523   -0.308660
C     1.165745   -0.785370    0.224338   -0.012914    0.038222    0.464386
N     0.015548   -1.472524    0.011300    0.009324   -0.029117   -0.344011
C    -1.135996   -0.733074   -0.036858    0.005428   -0.016040   -0.192884
N    -0.988436    0.677911   -0.051497   -0.003748    0.011654    0.140527
C     0.200359    1.416553   -0.189247    0.006391   -0.018797   -0.231203
O    -2.279226   -1.192210    0.062188   -0.002980    0.009865    0.118210
O     0.156580    2.656155   -0.200127   -0.002346    0.007431    0.084497
H     2.059209   -1.390567    0.631659   -0.043620    0.131787    1.591730
H    -1.857024    1.227894    0.093015   -0.024703    0.071942    0.868691
H     2.345644    1.042289    0.071186   -0.009591    0.028204    0.347504
11
* Frequency(9)  443.9429
C     1.360498    0.567065   -0.124707    0.008225   -0.025523   -0.308660
C     1.165147   -0.783601    0.245831   -0.012914    0.038222    0.464386
N     0.015980   -1.473872   -0.004622    0.009324   -0.029117   -0.344011
C    -1.135744   -0.733816   -0.045785    0.005428   -0.016040   -0.192884
N    -0.988609    0.678450   -0.044993   -0.003748    0.011654    0.140527
C     0.200655    1.415683   -0.199948    0.006391   -0.018797   -0.231203
O    -2.279363   -1.191753    0.067659   -0.002980    0.009865    0.118210
O     0.156472    2.656499   -0.196217   -0.002346    0.007431    0.084497
H     2.057191   -1.384468    0.705328   -0.043620    0.131787    1.591730
H    -1.858167    1.231224    0.133220   -0.024703    0.071942    0.868691
H     2.345200    1.043594    0.087269   -0.009591    0.028204    0.347504
11
* Frequency(9)  443.9429
C     1.360577    0.566822   -0.127644    0.008225   -0.025523   -0.308660
C     1.165025   -0.783237    0.250249   -0.012914    0.038222    0.464386
N     0.016068   -1.474149   -0.007895    0.009324   -0.029117   -0.344011
C    -1.135693   -0.733969   -0.047620    0.005428   -0.016040   -0.192884
N    -0.988645    0.678561   -0.043656   -0.003748    0.011654    0.140527
C     0.200716    1.415504   -0.202148    0.006391   -0.018797   -0.231203
O    -2.279392   -1.191659    0.068784   -0.002980    0.009865    0.118210
O     0.156449    2.656570   -0.195413   -0.002346    0.007431    0.084497
H     2.056776   -1.383214    0.720472   -0.043620    0.131787    1.591730
H    -1.858402    1.231908    0.141485   -0.024703    0.071942    0.868691
H     2.345109    1.043862    0.090575   -0.009591    0.028204    0.347504
11
* Frequency(9)  443.9429
C     1.360344    0.567544   -0.118914    0.008225   -0.025523   -0.308660
C     1.165390   -0.784318    0.237114   -0.012914    0.038222    0.464386
N     0.015805   -1.473325    0.001835    0.009324   -0.029117   -0.344011
C    -1.135846   -0.733515   -0.042164    0.005428   -0.016040   -0.192884
N    -0.988539    0.678231   -0.047631   -0.003748    0.011654    0.140527
C     0.200535    1.416036   -0.195608    0.006391   -0.018797   -0.231203
O    -2.279308   -1.191938    0.065440   -0.002980    0.009865    0.118210
O     0.156516    2.656360   -0.197803   -0.002346    0.007431    0.084497
H     2.058009   -1.386942    0.675452   -0.043620    0.131787    1.591730
H    -1.857703    1.229873    0.116915   -0.024703    0.071942    0.868691
H     2.345380    1.043065    0.080746   -0.009591    0.028204    0.347504
11
* Frequency(9)  443.9429
C     1.359826    0.569152   -0.099463    0.008225   -0.025523   -0.308660
C     1.166204   -0.786727    0.207850   -0.012914    0.038222    0.464386
N     0.015217   -1.471490    0.023514    0.009324   -0.029117   -0.344011
C    -1.136188   -0.732505   -0.030009    0.005428   -0.016040   -0.192884
N    -0.988303    0.677497   -0.056486   -0.003748    0.011654    0.140527
C     0.200132    1.417220   -0.181038    0.006391   -0.018797   -0.231203
O    -2.279120   -1.192560    0.057991   -0.002980    0.009865    0.118210
O     0.156664    2.655892   -0.203127   -0.002346    0.007431    0.084497
H     2.060758   -1.395246    0.575145   -0.043620    0.131787    1.591730
H    -1.856147    1.225340    0.062172   -0.024703    0.071942    0.868691
H     2.345984    1.041287    0.058847   -0.009591    0.028204    0.347504
11
* Frequency(9)  443.9429
C     1.359078    0.571473   -0.071399    0.008225   -0.025523   -0.308660
C     1.167378   -0.790202    0.165627   -0.012914    0.038222    0.464386
N     0.014369   -1.468843    0.054792    0.009324   -0.029117   -0.344011
C    -1.136682   -0.731046   -0.012472    0.005428   -0.016040   -0.192884
N    -0.987962    0.676437   -0.069263   -0.003748    0.011654    0.140527
C     0.199551    1.418929   -0.160017    0.006391   -0.018797   -0.231203
O    -2.278849   -1.193457    0.047243   -0.002980    0.009865    0.118210
O     0.156877    2.655216   -0.210810   -0.002346    0.007431    0.084497
H     2.064724   -1.407229    0.430422   -0.043620    0.131787    1.591730
H    -1.853901    1.218799   -0.016810   -0.024703    0.071942    0.868691
H     2.346856    1.038723    0.027252   -0.009591    0.028204    0.347504
11
* Frequency(9)  443.9429
C     1.358182    0.574254   -0.037763    0.008225   -0.025523   -0.308660
C     1.168785   -0.794367    0.115022   -0.012914    0.038222    0.464386
N     0.013353   -1.465670    0.092280    0.009324   -0.029117   -0.344011
C    -1.137273   -0.729298    0.008547    0.005428   -0.016040   -0.192884
N    -0.987553    0.675168   -0.084577   -0.003748    0.011654    0.140527
C     0.198855    1.420978   -0.134822    0.006391   -0.018797   -0.231203
O    -2.278524   -1.194532    0.034362   -0.002980    0.009865    0.118210
O     0.157132    2.654406   -0.220018   -0.002346    0.007431    0.084497
H     2.069478   -1.421590    0.256966   -0.043620    0.131787    1.591730
H    -1.851209    1.210959   -0.111475   -0.024703    0.071942    0.868691
H     2.347901    1.035649   -0.010617   -0.009591    0.028204    0.347504
11
* Frequency(9)  443.9429
C     1.357234    0.577195   -0.002200    0.008225   -0.025523   -0.308660
C     1.170273   -0.798771    0.061517   -0.012914    0.038222    0.464386
N     0.012279   -1.462315    0.131916    0.009324   -0.029117   -0.344011
C    -1.137899   -0.727450    0.030770    0.005428   -0.016040   -0.192884
N    -0.987121    0.673825   -0.100768   -0.003748    0.011654    0.140527
C     0.198118    1.423143   -0.108184    0.006391   -0.018797   -0.231203
O    -2.278181   -1.195668    0.020742   -0.002980    0.009865    0.118210
O     0.157403    2.653550   -0.229753   -0.002346    0.007431    0.084497
H     2.074503   -1.436774    0.073573   -0.043620    0.131787    1.591730
H    -1.848362    1.202670   -0.211562   -0.024703    0.071942    0.868691
H     2.349007    1.032400   -0.050655   -0.009591    0.028204    0.347504
11
* Frequency(9)  443.9429
C     1.356338    0.579976    0.031435    0.008225   -0.025523   -0.308660
C     1.171680   -0.802936    0.010911   -0.012914    0.038222    0.464386
N     0.011263   -1.459142    0.169404    0.009324   -0.029117   -0.344011
C    -1.138490   -0.725702    0.051790    0.005428   -0.016040   -0.192884
N    -0.986713    0.672555   -0.116082   -0.003748    0.011654    0.140527
C     0.197422    1.425192   -0.082988    0.006391   -0.018797   -0.231203
O    -2.277856   -1.196743    0.007860   -0.002980    0.009865    0.118210
O     0.157658    2.652740   -0.238961   -0.002346    0.007431    0.084497
H     2.079257   -1.451135   -0.099883   -0.043620    0.131787    1.591730
H    -1.845671    1.194830   -0.306226   -0.024703    0.071942    0.868691
H     2.350052    1.029326   -0.088524   -0.009591    0.028204    0.347504
11
* Frequency(9)  443.9429
C     1.355590    0.582296    0.059499    0.008225   -0.025523   -0.308660
C     1.172854   -0.806412   -0.031312   -0.012914    0.038222    0.464386
N     0.010415   -1.456495    0.200682    0.009324   -0.029117   -0.344011
C    -1.138984   -0.724244    0.069327    0.005428   -0.016040   -0.192884
N    -0.986372    0.671495   -0.128859   -0.003748    0.011654    0.140527
C     0.196841    1.426901   -0.061967    0.006391   -0.018797   -0.231203
O    -2.277585   -1.197640   -0.002888   -0.002980    0.009865    0.118210
O     0.157872    2.652064   -0.246644   -0.002346    0.007431    0.084497
H     2.083223   -1.463117   -0.244606   -0.043620    0.131787    1.591730
H    -1.843425    1.188289   -0.385209   -0.024703    0.071942    0.868691
H     2.350924    1.026762   -0.120120   -0.009591    0.028204    0.347504
11
* Frequency(9)  443.9429
C     1.355071    0.583905    0.078950    0.008225   -0.025523   -0.308660
C     1.173668   -0.808820   -0.060576   -0.012914    0.038222    0.464386
N     0.009828   -1.454660    0.222361    0.009324   -0.029117   -0.344011
C    -1.139326   -0.723233    0.081482    0.005428   -0.016040   -0.192884
N    -0.986136    0.670761   -0.137715   -0.003748    0.011654    0.140527
C     0.196438    1.428085   -0.047397    0.006391   -0.018797   -0.231203
O    -2.277397   -1.198262   -0.010337   -0.002980    0.009865    0.118210
O     0.158019    2.651596   -0.251969   -0.002346    0.007431    0.084497
H     2.085972   -1.471422   -0.344913   -0.043620    0.131787    1.591730
H    -1.841868    1.183756   -0.439952   -0.024703    0.071942    0.868691
H     2.351528    1.024984   -0.142018   -0.009591    0.028204    0.347504
11
* Frequency(9)  443.9429
C     1.354839    0.584627    0.087680    0.008225   -0.025523   -0.308660
C     1.174033   -0.809901   -0.073711   -0.012914    0.038222    0.464386
N     0.009564   -1.453836    0.232091    0.009324   -0.029117   -0.344011
C    -1.139479   -0.722779    0.086938    0.005428   -0.016040   -0.192884
N    -0.986030    0.670431   -0.141689   -0.003748    0.011654    0.140527
C     0.196257    1.428617   -0.040858    0.006391   -0.018797   -0.231203
O    -2.277313   -1.198541   -0.013680   -0.002980    0.009865    0.118210
O     0.158086    2.651386   -0.254358   -0.002346    0.007431    0.084497
H     2.087205   -1.475150   -0.389933   -0.043620    0.131787    1.591730
H    -1.841169    1.181721   -0.464522   -0.024703    0.071942    0.868691
H     2.351799    1.024187   -0.151847   -0.009591    0.028204    0.347504
11
* Frequency(9)  443.9429
C     1.354917    0.584384    0.084744    0.008225   -0.025523   -0.308660
C     1.173910   -0.809538   -0.069292   -0.012914    0.038222    0.464386
N     0.009652   -1.454113    0.228818    0.009324   -0.029117   -0.344011
C    -1.139428   -0.722932    0.085102    0.005428   -0.016040   -0.192884
N    -0.986066    0.670542   -0.140352   -0.003748    0.011654    0.140527
C     0.196318    1.428438   -0.043058    0.006391   -0.018797   -0.231203
O    -2.277341   -1.198447   -0.012555   -0.002980    0.009865    0.118210
O     0.158063    2.651457   -0.253554   -0.002346    0.007431    0.084497
H     2.086790   -1.473896   -0.374789   -0.043620    0.131787    1.591730
H    -1.841404    1.182405   -0.456257   -0.024703    0.071942    0.868691
H     2.351708    1.024455   -0.148541   -0.009591    0.028204    0.347504
11
* Frequency(9)  443.9429
C     1.355298    0.583203    0.070458    0.008225   -0.025523   -0.308660
C     1.173313   -0.807769   -0.047800   -0.012914    0.038222    0.464386
N     0.010084   -1.455461    0.212896    0.009324   -0.029117   -0.344011
C    -1.139176   -0.723674    0.076175    0.005428   -0.016040   -0.192884
N    -0.986239    0.671082   -0.133848   -0.003748    0.011654    0.140527
C     0.196614    1.427568   -0.053758    0.006391   -0.018797   -0.231203
O    -2.277479   -1.197991   -0.007085   -0.002980    0.009865    0.118210
O     0.157955    2.651801   -0.249644   -0.002346    0.007431    0.084497
H     2.084771   -1.467796   -0.301121   -0.043620    0.131787    1.591730
H    -1.842547    1.185735   -0.416052   -0.024703    0.071942    0.868691
H     2.351264    1.025760   -0.132458   -0.009591    0.028204    0.347504
11
* Frequency(9)  443.9429
C     1.355940    0.581211    0.046372    0.008225   -0.025523   -0.308660
C     1.172305   -0.804786   -0.011562   -0.012914    0.038222    0.464386
N     0.010812   -1.457733    0.186052    0.009324   -0.029117   -0.344011
C    -1.138753   -0.724926    0.061124    0.005428   -0.016040   -0.192884
N    -0.986532    0.671991   -0.122883   -0.003748    0.011654    0.140527
C     0.197113    1.426101   -0.071800    0.006391   -0.018797   -0.231203
O    -2.277712   -1.197221    0.002140   -0.002980    0.009865    0.118210
O     0.157772    2.652380   -0.243050   -0.002346    0.007431    0.084497
H     2.081368   -1.457513   -0.176912   -0.043620    0.131787    1.591730
H    -1.844475    1.191349   -0.348265   -0.024703    0.071942    0.868691
H     2.350516    1.027961   -0.105341   -0.009591    0.028204    0.347504
11
* Frequency(9)  443.9429
C     1.356773    0.578625    0.015096    0.008225   -0.025523   -0.308660
C     1.170996   -0.800913    0.035494   -0.012914    0.038222    0.464386
N     0.011756   -1.460683    0.151193    0.009324   -0.029117   -0.344011
C    -1.138203   -0.726551    0.041579    0.005428   -0.016040   -0.192884
N    -0.986911    0.673172   -0.108643   -0.003748    0.011654    0.140527
C     0.197760    1.424197   -0.095228    0.006391   -0.018797   -0.231203
O    -2.278014   -1.196221    0.014118   -0.002980    0.009865    0.118210
O     0.157534    2.653133   -0.234488   -0.002346    0.007431    0.084497
H     2.076948   -1.444159   -0.015622   -0.043620    0.131787    1.591730
H    -1.846978    1.198639   -0.260241   -0.024703    0.071942    0.868691
H     2.349544    1.030819   -0.070128   -0.009591    0.028204    0.347504
11
* Frequency(9)  443.9429
C     1.357708    0.575724   -0.019982    0.008225   -0.025523   -0.308660
C     1.169529   -0.796569    0.088269   -0.012914    0.038222    0.464386
N     0.012816   -1.463992    0.112098    0.009324   -0.029117   -0.344011
C    -1.137586   -0.728374    0.019659    0.005428   -0.016040   -0.192884
N    -0.987337    0.674496   -0.092673   -0.003748    0.011654    0.140527
C     0.198487    1.422060   -0.121503    0.006391   -0.018797   -0.231203
O    -2.278352   -1.195100    0.027552   -0.002980    0.009865    0.118210
O     0.157268    2.653978   -0.224886   -0.002346    0.007431    0.084497
H     2.071990   -1.429182    0.165269   -0.043620    0.131787    1.591730
H    -1.849786    1.206815   -0.161518   -0.024703    0.071942    0.868691
H     2.348454    1.034025   -0.030636   -0.009591    0.028204    0.347504
