11
* (null), Energy   -1000.0000000
C     1.357708    0.575724   -0.019982   -0.252965   -0.245037    0.013475
C     1.169529   -0.796569    0.088269    0.078912   -0.206634    0.018404
N     0.012816   -1.463992    0.112098   -0.124870    0.722164   -0.063294
C    -1.137586   -0.728374    0.019659    0.096636   -0.016315    0.003771
N    -0.987337    0.674496   -0.092673    0.242297   -0.549526    0.052693
C     0.198487    1.422060   -0.121503   -0.113666    0.112995   -0.012213
O    -2.278352   -1.195100    0.027552    0.030572    0.034482   -0.001953
O     0.157268    2.653978   -0.224886    0.058218    0.233303   -0.017746
H     2.071990   -1.429182    0.165269   -0.243808   -0.665756    0.054384
H    -1.849786    1.206815   -0.161518   -0.296246   -1.439464    0.107685
H     2.348454    1.034025   -0.030636   -0.224061   -0.314043    0.018651
11
* Frequency(18)  967.2488
C     1.328960    0.547877   -0.018450   -0.252965   -0.245037    0.013475
C     1.178497   -0.820052    0.090361    0.078912   -0.206634    0.018404
N    -0.001375   -1.381922    0.104905   -0.124870    0.722164   -0.063294
C    -1.126604   -0.730228    0.020087    0.096636   -0.016315    0.003771
N    -0.959802    0.612045   -0.086685    0.242297   -0.549526    0.052693
C     0.185569    1.434902   -0.122891   -0.113666    0.112995   -0.012213
O    -2.274878   -1.191182    0.027330    0.030572    0.034482   -0.001953
O     0.163884    2.680492   -0.226902    0.058218    0.233303   -0.017746
H     2.044283   -1.504842    0.171450   -0.243808   -0.665756    0.054384
H    -1.883452    1.043227   -0.149281   -0.296246   -1.439464    0.107685
H     2.322991    0.998335   -0.028517   -0.224061   -0.314043    0.018651
11
* Frequency(18)  967.2488
C     1.303327    0.523048   -0.017085   -0.252965   -0.245037    0.013475
C     1.186493   -0.840990    0.092226    0.078912   -0.206634    0.018404
N    -0.014028   -1.308746    0.098491   -0.124870    0.722164   -0.063294
C    -1.116812   -0.731882    0.020470    0.096636   -0.016315    0.003771
N    -0.935250    0.556362   -0.081345    0.242297   -0.549526    0.052693
C     0.174051    1.446351   -0.124128   -0.113666    0.112995   -0.012213
O    -2.271780   -1.187688    0.027132    0.030572    0.034482   -0.001953
O     0.169783    2.704132   -0.228701    0.058218    0.233303   -0.017746
H     2.019578   -1.572302    0.176961   -0.243808   -0.665756    0.054384
H    -1.913471    0.897367   -0.138369   -0.296246   -1.439464    0.107685
H     2.300287    0.966513   -0.026627   -0.224061   -0.314043    0.018651
11
* Frequency(18)  967.2488
C     1.283587    0.503926   -0.016033   -0.252965   -0.245037    0.013475
C     1.192651   -0.857115    0.093662    0.078912   -0.206634    0.018404
N    -0.023772   -1.252392    0.093552   -0.124870    0.722164   -0.063294
C    -1.109271   -0.733155    0.020764    0.096636   -0.016315    0.003771
N    -0.916342    0.513480   -0.077233    0.242297   -0.549526    0.052693
C     0.165181    1.455169   -0.125081   -0.113666    0.112995   -0.012213
O    -2.269395   -1.184997    0.026980    0.030572    0.034482   -0.001953
O     0.174326    2.722338   -0.230085    0.058218    0.233303   -0.017746
H     2.000553   -1.624254    0.181204   -0.243808   -0.665756    0.054384
H    -1.936588    0.785040   -0.129966   -0.296246   -1.439464    0.107685
H     2.282802    0.942007   -0.025171   -0.224061   -0.314043    0.018651
11
* Frequency(18)  967.2488
C     1.271879    0.492586   -0.015410   -0.252965   -0.245037    0.013475
C     1.196303   -0.866678    0.094514    0.078912   -0.206634    0.018404
N    -0.029551   -1.218969    0.090623   -0.124870    0.722164   -0.063294
C    -1.104798   -0.733910    0.020938    0.096636   -0.016315    0.003771
N    -0.905128    0.488047   -0.074795    0.242297   -0.549526    0.052693
C     0.159921    1.460398   -0.125646   -0.113666    0.112995   -0.012213
O    -2.267980   -1.183401    0.026889    0.030572    0.034482   -0.001953
O     0.177020    2.733135   -0.230907    0.058218    0.233303   -0.017746
H     1.989269   -1.655066    0.183721   -0.243808   -0.665756    0.054384
H    -1.950299    0.718419   -0.124982   -0.296246   -1.439464    0.107685
H     2.272432    0.927473   -0.024308   -0.224061   -0.314043    0.018651
11
* Frequency(18)  967.2488
C     1.269472    0.490254   -0.015282   -0.252965   -0.245037    0.013475
C     1.197054   -0.868644    0.094689    0.078912   -0.206634    0.018404
N    -0.030739   -1.212098    0.090021   -0.124870    0.722164   -0.063294
C    -1.103879   -0.734065    0.020974    0.096636   -0.016315    0.003771
N    -0.902823    0.482819   -0.074293    0.242297   -0.549526    0.052693
C     0.158839    1.461474   -0.125763   -0.113666    0.112995   -0.012213
O    -2.267689   -1.183073    0.026871    0.030572    0.034482   -0.001953
O     0.177574    2.735355   -0.231076    0.058218    0.233303   -0.017746
H     1.986949   -1.661401    0.184239   -0.243808   -0.665756    0.054384
H    -1.953118    0.704723   -0.123958   -0.296246   -1.439464    0.107685
H     2.270300    0.924485   -0.024131   -0.224061   -0.314043    0.018651
11
* Frequency(18)  967.2488
C     1.276627    0.497185   -0.015663   -0.252965   -0.245037    0.013475
C     1.194822   -0.862800    0.094168    0.078912   -0.206634    0.018404
N    -0.027207   -1.232524    0.091811   -0.124870    0.722164   -0.063294
C    -1.106612   -0.733604    0.020868    0.096636   -0.016315    0.003771
N    -0.909676    0.498362   -0.075784    0.242297   -0.549526    0.052693
C     0.162054    1.458278   -0.125417   -0.113666    0.112995   -0.012213
O    -2.268554   -1.184048    0.026926    0.030572    0.034482   -0.001953
O     0.175928    2.728756   -0.230574    0.058218    0.233303   -0.017746
H     1.993845   -1.642570    0.182701   -0.243808   -0.665756    0.054384
H    -1.944739    0.745437   -0.127003   -0.296246   -1.439464    0.107685
H     2.276638    0.933367   -0.024658   -0.224061   -0.314043    0.018651
11
* Frequency(18)  967.2488
C     1.292568    0.512626   -0.016512   -0.252965   -0.245037    0.013475
C     1.189849   -0.849778    0.093008    0.078912   -0.206634    0.018404
N    -0.019338   -1.278033    0.095799   -0.124870    0.722164   -0.063294
C    -1.112702   -0.732575    0.020630    0.096636   -0.016315    0.003771
N    -0.924945    0.532991   -0.079104    0.242297   -0.549526    0.052693
C     0.169217    1.451157   -0.124648   -0.113666    0.112995   -0.012213
O    -2.270480   -1.186221    0.027049    0.030572    0.034482   -0.001953
O     0.172259    2.714054   -0.229455    0.058218    0.233303   -0.017746
H     2.009209   -1.600616    0.179273   -0.243808   -0.665756    0.054384
H    -1.926070    0.836148   -0.133789   -0.296246   -1.439464    0.107685
H     2.290757    0.953157   -0.025833   -0.224061   -0.314043    0.018651
11
* Frequency(18)  967.2488
C     1.315568    0.534906   -0.017737   -0.252965   -0.245037    0.013475
C     1.182674   -0.830991    0.091335    0.078912   -0.206634    0.018404
N    -0.007985   -1.343693    0.101554   -0.124870    0.722164   -0.063294
C    -1.121488   -0.731092    0.020287    0.096636   -0.016315    0.003771
N    -0.946975    0.582955   -0.083895    0.242297   -0.549526    0.052693
C     0.179552    1.440883   -0.123537   -0.113666    0.112995   -0.012213
O    -2.273260   -1.189356    0.027226    0.030572    0.034482   -0.001953
O     0.166966    2.692842   -0.227842    0.058218    0.233303   -0.017746
H     2.031377   -1.540085    0.174329   -0.243808   -0.665756    0.054384
H    -1.899135    0.967026   -0.143580   -0.296246   -1.439464    0.107685
H     2.311130    0.981711   -0.027529   -0.224061   -0.314043    0.018651
11
* Frequency(18)  967.2488
C     1.343135    0.561608   -0.019205   -0.252965   -0.245037    0.013475
C     1.174075   -0.808473    0.089329    0.078912   -0.206634    0.018404
N     0.005623   -1.422390    0.108452   -0.124870    0.722164   -0.063294
C    -1.132019   -0.729314    0.019876    0.096636   -0.016315    0.003771
N    -0.973379    0.642839   -0.089637    0.242297   -0.549526    0.052693
C     0.191938    1.428570   -0.122206   -0.113666    0.112995   -0.012213
O    -2.276591   -1.193114    0.027439    0.030572    0.034482   -0.001953
O     0.160621    2.667418   -0.225908    0.058218    0.233303   -0.017746
H     2.057945   -1.467535    0.168402   -0.243808   -0.665756    0.054384
H    -1.866852    1.123890   -0.155315   -0.296246   -1.439464    0.107685
H     2.335546    1.015933   -0.029562   -0.224061   -0.314043    0.018651
11
* Frequency(18)  967.2488
C     1.372281    0.589840   -0.020758   -0.252965   -0.245037    0.013475
C     1.164983   -0.784666    0.087209    0.078912   -0.206634    0.018404
N     0.020010   -1.505595    0.115744   -0.124870    0.722164   -0.063294
C    -1.143153   -0.727434    0.019442    0.096636   -0.016315    0.003771
N    -1.001296    0.706153   -0.095708    0.242297   -0.549526    0.052693
C     0.205035    1.415551   -0.120799   -0.113666    0.112995   -0.012213
O    -2.280114   -1.197087    0.027664    0.030572    0.034482   -0.001953
O     0.153914    2.640538   -0.223863    0.058218    0.233303   -0.017746
H     2.086036   -1.390829    0.162136   -0.243808   -0.665756    0.054384
H    -1.832719    1.289739   -0.167722   -0.296246   -1.439464    0.107685
H     2.361362    1.052116   -0.031711   -0.224061   -0.314043    0.018651
11
* Frequency(18)  967.2488
C     1.399847    0.616543   -0.022226   -0.252965   -0.245037    0.013475
C     1.156384   -0.762148    0.085203    0.078912   -0.206634    0.018404
N     0.033617   -1.584292    0.122642   -0.124870    0.722164   -0.063294
C    -1.153684   -0.725656    0.019031    0.096636   -0.016315    0.003771
N    -1.027700    0.766037   -0.101450    0.242297   -0.549526    0.052693
C     0.217421    1.403237   -0.119468   -0.113666    0.112995   -0.012213
O    -2.283445   -1.200844    0.027877    0.030572    0.034482   -0.001953
O     0.147570    2.615114   -0.221929    0.058218    0.233303   -0.017746
H     2.112604   -1.318279    0.156210   -0.243808   -0.665756    0.054384
H    -1.800436    1.446603   -0.179457   -0.296246   -1.439464    0.107685
H     2.385778    1.086338   -0.033743   -0.224061   -0.314043    0.018651
11
* Frequency(18)  967.2488
C     1.422847    0.638822   -0.023451   -0.252965   -0.245037    0.013475
C     1.149209   -0.743361    0.083530    0.078912   -0.206634    0.018404
N     0.044971   -1.649952    0.128396   -0.124870    0.722164   -0.063294
C    -1.162470   -0.724173    0.018688    0.096636   -0.016315    0.003771
N    -1.049730    0.816001   -0.106241    0.242297   -0.549526    0.052693
C     0.227756    1.392964   -0.118358   -0.113666    0.112995   -0.012213
O    -2.286225   -1.203979    0.028055    0.030572    0.034482   -0.001953
O     0.142276    2.593902   -0.220316    0.058218    0.233303   -0.017746
H     2.134772   -1.257747    0.151265   -0.243808   -0.665756    0.054384
H    -1.773501    1.577481   -0.189248   -0.296246   -1.439464    0.107685
H     2.406151    1.114892   -0.035439   -0.224061   -0.314043    0.018651
11
* Frequency(18)  967.2488
C     1.438788    0.654264   -0.024300   -0.252965   -0.245037    0.013475
C     1.144236   -0.730339    0.082370    0.078912   -0.206634    0.018404
N     0.052840   -1.695461    0.132385   -0.124870    0.722164   -0.063294
C    -1.168560   -0.723145    0.018450    0.096636   -0.016315    0.003771
N    -1.064999    0.850631   -0.109562    0.242297   -0.549526    0.052693
C     0.234919    1.385843   -0.117588   -0.113666    0.112995   -0.012213
O    -2.288151   -1.206152    0.028178    0.030572    0.034482   -0.001953
O     0.138608    2.579200   -0.219197    0.058218    0.233303   -0.017746
H     2.150136   -1.215793    0.147838   -0.243808   -0.665756    0.054384
H    -1.754833    1.668193   -0.196034   -0.296246   -1.439464    0.107685
H     2.420270    1.134682   -0.036614   -0.224061   -0.314043    0.018651
11
* Frequency(18)  967.2488
C     1.445943    0.661194   -0.024682   -0.252965   -0.245037    0.013475
C     1.142004   -0.724495    0.081850    0.078912   -0.206634    0.018404
N     0.056371   -1.715886    0.134175   -0.124870    0.722164   -0.063294
C    -1.171293   -0.722683    0.018343    0.096636   -0.016315    0.003771
N    -1.071852    0.866173   -0.111052    0.242297   -0.549526    0.052693
C     0.238134    1.382647   -0.117243   -0.113666    0.112995   -0.012213
O    -2.289016   -1.207128    0.028233    0.030572    0.034482   -0.001953
O     0.136961    2.572601   -0.218696    0.058218    0.233303   -0.017746
H     2.157032   -1.196963    0.146300   -0.243808   -0.665756    0.054384
H    -1.746454    1.708906   -0.199079   -0.296246   -1.439464    0.107685
H     2.426608    1.143564   -0.037142   -0.224061   -0.314043    0.018651
11
* Frequency(18)  967.2488
C     1.443536    0.658863   -0.024553   -0.252965   -0.245037    0.013475
C     1.142755   -0.726461    0.082025    0.078912   -0.206634    0.018404
N     0.055183   -1.709015    0.133573   -0.124870    0.722164   -0.063294
C    -1.170374   -0.722838    0.018379    0.096636   -0.016315    0.003771
N    -1.069546    0.860945   -0.110551    0.242297   -0.549526    0.052693
C     0.237052    1.383722   -0.117359   -0.113666    0.112995   -0.012213
O    -2.288725   -1.206799    0.028215    0.030572    0.034482   -0.001953
O     0.137515    2.574821   -0.218864    0.058218    0.233303   -0.017746
H     2.154712   -1.203297    0.146818   -0.243808   -0.665756    0.054384
H    -1.749272    1.695210   -0.198055   -0.296246   -1.439464    0.107685
H     2.424476    1.140576   -0.036964   -0.224061   -0.314043    0.018651
11
* Frequency(18)  967.2488
C     1.431829    0.647522   -0.023930   -0.252965   -0.245037    0.013475
C     1.146407   -0.736024    0.082876    0.078912   -0.206634    0.018404
N     0.049404   -1.675592    0.130644   -0.124870    0.722164   -0.063294
C    -1.165901   -0.723594    0.018554    0.096636   -0.016315    0.003771
N    -1.058332    0.835512   -0.108112    0.242297   -0.549526    0.052693
C     0.231792    1.388952   -0.117924   -0.113666    0.112995   -0.012213
O    -2.287310   -1.205204    0.028124    0.030572    0.034482   -0.001953
O     0.140209    2.585618   -0.219686    0.058218    0.233303   -0.017746
H     2.143428   -1.234110    0.149335   -0.243808   -0.665756    0.054384
H    -1.762983    1.628589   -0.193071   -0.296246   -1.439464    0.107685
H     2.414106    1.126042   -0.036101   -0.224061   -0.314043    0.018651
11
* Frequency(18)  967.2488
C     1.412089    0.628401   -0.022878   -0.252965   -0.245037    0.013475
C     1.152565   -0.752148    0.084313    0.078912   -0.206634    0.018404
N     0.039660   -1.619239    0.125705   -0.124870    0.722164   -0.063294
C    -1.158360   -0.724867    0.018848    0.096636   -0.016315    0.003771
N    -1.039425    0.792630   -0.104000    0.242297   -0.549526    0.052693
C     0.222922    1.397769   -0.118877   -0.113666    0.112995   -0.012213
O    -2.284925   -1.202513    0.027972    0.030572    0.034482   -0.001953
O     0.144752    2.603824   -0.221071    0.058218    0.233303   -0.017746
H     2.124403   -1.286061    0.153578   -0.243808   -0.665756    0.054384
H    -1.786100    1.516263   -0.184668   -0.296246   -1.439464    0.107685
H     2.396621    1.101536   -0.034646   -0.224061   -0.314043    0.018651
11
* Frequency(18)  967.2488
C     1.386456    0.603571   -0.021513   -0.252965   -0.245037    0.013475
C     1.160561   -0.773087    0.086178    0.078912   -0.206634    0.018404
N     0.027007   -1.546063    0.119291   -0.124870    0.722164   -0.063294
C    -1.148568   -0.726520    0.019230    0.096636   -0.016315    0.003771
N    -1.014873    0.736947   -0.098661    0.242297   -0.549526    0.052693
C     0.211404    1.409219   -0.120115   -0.113666    0.112995   -0.012213
O    -2.281827   -1.199019    0.027774    0.030572    0.034482   -0.001953
O     0.150651    2.627464   -0.222869    0.058218    0.233303   -0.017746
H     2.099698   -1.353522    0.159089   -0.243808   -0.665756    0.054384
H    -1.816119    1.370402   -0.173756   -0.296246   -1.439464    0.107685
H     2.373917    1.069714   -0.032756   -0.224061   -0.314043    0.018651
11
* Frequency(18)  967.2488
C     1.357708    0.575724   -0.019982   -0.252965   -0.245037    0.013475
C     1.169529   -0.796569    0.088269    0.078912   -0.206634    0.018404
N     0.012816   -1.463992    0.112098   -0.124870    0.722164   -0.063294
C    -1.137586   -0.728374    0.019659    0.096636   -0.016315    0.003771
N    -0.987337    0.674496   -0.092673    0.242297   -0.549526    0.052693
C     0.198487    1.422060   -0.121503   -0.113666    0.112995   -0.012213
O    -2.278352   -1.195100    0.027552    0.030572    0.034482   -0.001953
O     0.157268    2.653978   -0.224886    0.058218    0.233303   -0.017746
H     2.071990   -1.429182    0.165269   -0.243808   -0.665756    0.054384
H    -1.849786    1.206815   -0.161518   -0.296246   -1.439464    0.107685
H     2.348454    1.034025   -0.030636   -0.224061   -0.314043    0.018651
