11
* (null), Energy   -1000.0000000
C     1.357708    0.575724   -0.019982   -0.294249    0.139839   -0.019524
C     1.169529   -0.796569    0.088269   -0.012585   -0.152026    0.012168
N     0.012816   -1.463992    0.112098    0.315491   -0.202536    0.025492
C    -1.137586   -0.728374    0.019659   -0.299549    0.768741   -0.072139
N    -0.987337    0.674496   -0.092673   -0.228432   -0.415692    0.028241
C     0.198487    1.422060   -0.121503    0.613472    0.068395    0.011202
O    -2.278352   -1.195100    0.027552   -0.068878   -0.065815    0.003624
O     0.157268    2.653978   -0.224886   -0.010633   -0.014465    0.000919
H     2.071990   -1.429182    0.165269    0.747024    0.866842   -0.051583
H    -1.849786    1.206815   -0.161518   -0.514003   -0.879870    0.057733
H     2.348454    1.034025   -0.030636   -0.265235    0.048203   -0.011156
11
* Frequency(22) 1145.1509
C     1.324268    0.591616   -0.022200   -0.294249    0.139839   -0.019524
C     1.168099   -0.813846    0.089652   -0.012585   -0.152026    0.012168
N     0.048670   -1.487009    0.114995    0.315491   -0.202536    0.025492
C    -1.171628   -0.641011    0.011461   -0.299549    0.768741   -0.072139
N    -1.013298    0.627255   -0.089463   -0.228432   -0.415692    0.028241
C     0.268204    1.429833   -0.120230    0.613472    0.068395    0.011202
O    -2.286180   -1.202580    0.027964   -0.068878   -0.065815    0.003624
O     0.156059    2.652334   -0.224781   -0.010633   -0.014465    0.000919
H     2.156886   -1.330670    0.159407    0.747024    0.866842   -0.051583
H    -1.908199    1.106822   -0.154957   -0.514003   -0.879870    0.057733
H     2.318311    1.039503   -0.031904   -0.265235    0.048203   -0.011156
11
* Frequency(22) 1145.1509
C     1.294452    0.605786   -0.024179   -0.294249    0.139839   -0.019524
C     1.166823   -0.829251    0.090885   -0.012585   -0.152026    0.012168
N     0.080639   -1.507532    0.117578    0.315491   -0.202536    0.025492
C    -1.201981   -0.563115    0.004151   -0.299549    0.768741   -0.072139
N    -1.036445    0.585133   -0.086602   -0.228432   -0.415692    0.028241
C     0.330367    1.436764   -0.119095    0.613472    0.068395    0.011202
O    -2.293159   -1.209249    0.028331   -0.068878   -0.065815    0.003624
O     0.154982    2.650868   -0.224688   -0.010633   -0.014465    0.000919
H     2.232581   -1.242833    0.154180    0.747024    0.866842   -0.051583
H    -1.960283    1.017665   -0.149107   -0.514003   -0.879870    0.057733
H     2.291435    1.044387   -0.033034   -0.265235    0.048203   -0.011156
11
* Frequency(22) 1145.1509
C     1.271490    0.616698   -0.025702   -0.294249    0.139839   -0.019524
C     1.165841   -0.841114    0.091835   -0.012585   -0.152026    0.012168
N     0.105258   -1.523337    0.119567    0.315491   -0.202536    0.025492
C    -1.225356   -0.503127   -0.001478   -0.299549    0.768741   -0.072139
N    -1.054270    0.552695   -0.084398   -0.228432   -0.415692    0.028241
C     0.378239    1.442101   -0.118220    0.613472    0.068395    0.011202
O    -2.298534   -1.214385    0.028614   -0.068878   -0.065815    0.003624
O     0.154152    2.649740   -0.224616   -0.010633   -0.014465    0.000919
H     2.290875   -1.175190    0.150155    0.747024    0.866842   -0.051583
H    -2.000393    0.949005   -0.144602   -0.514003   -0.879870    0.057733
H     2.270738    1.048148   -0.033905   -0.265235    0.048203   -0.011156
11
* Frequency(22) 1145.1509
C     1.257872    0.623170   -0.026606   -0.294249    0.139839   -0.019524
C     1.165259   -0.848150    0.092398   -0.012585   -0.152026    0.012168
N     0.119859   -1.532711    0.120747    0.315491   -0.202536    0.025492
C    -1.239220   -0.467548   -0.004817   -0.299549    0.768741   -0.072139
N    -1.064842    0.533456   -0.083091   -0.228432   -0.415692    0.028241
C     0.406631    1.445266   -0.117702    0.613472    0.068395    0.011202
O    -2.301722   -1.217431    0.028781   -0.068878   -0.065815    0.003624
O     0.153660    2.649070   -0.224574   -0.010633   -0.014465    0.000919
H     2.325448   -1.135071    0.147768    0.747024    0.866842   -0.051583
H    -2.024182    0.908283   -0.141930   -0.514003   -0.879870    0.057733
H     2.258462    1.050379   -0.034421   -0.265235    0.048203   -0.011156
11
* Frequency(22) 1145.1509
C     1.255072    0.624501   -0.026792   -0.294249    0.139839   -0.019524
C     1.165139   -0.849597    0.092513   -0.012585   -0.152026    0.012168
N     0.122861   -1.534638    0.120990    0.315491   -0.202536    0.025492
C    -1.242070   -0.460234   -0.005504   -0.299549    0.768741   -0.072139
N    -1.067016    0.529501   -0.082822   -0.228432   -0.415692    0.028241
C     0.412468    1.445917   -0.117595    0.613472    0.068395    0.011202
O    -2.302377   -1.218057    0.028816   -0.068878   -0.065815    0.003624
O     0.153559    2.648933   -0.224565   -0.010633   -0.014465    0.000919
H     2.332556   -1.126824    0.147277    0.747024    0.866842   -0.051583
H    -2.029072    0.899912   -0.141381   -0.514003   -0.879870    0.057733
H     2.255939    1.050838   -0.034527   -0.265235    0.048203   -0.011156
11
* Frequency(22) 1145.1509
C     1.263395    0.620546   -0.026240   -0.294249    0.139839   -0.019524
C     1.165495   -0.845297    0.092169   -0.012585   -0.152026    0.012168
N     0.113937   -1.528909    0.120269    0.315491   -0.202536    0.025492
C    -1.233598   -0.481977   -0.003463   -0.299549    0.768741   -0.072139
N    -1.060555    0.541258   -0.083621   -0.228432   -0.415692    0.028241
C     0.395117    1.443982   -0.117912    0.613472    0.068395    0.011202
O    -2.300429   -1.216195    0.028713   -0.068878   -0.065815    0.003624
O     0.153860    2.649342   -0.224591   -0.010633   -0.014465    0.000919
H     2.311427   -1.151341    0.148736    0.747024    0.866842   -0.051583
H    -2.014534    0.924798   -0.143014   -0.514003   -0.879870    0.057733
H     2.263441    1.049475   -0.034212   -0.265235    0.048203   -0.011156
11
* Frequency(22) 1145.1509
C     1.281938    0.611733   -0.025009   -0.294249    0.139839   -0.019524
C     1.166288   -0.835717    0.091402   -0.012585   -0.152026    0.012168
N     0.094056   -1.516146    0.118662    0.315491   -0.202536    0.025492
C    -1.214721   -0.530421    0.001083   -0.299549    0.768741   -0.072139
N    -1.046160    0.567454   -0.085401   -0.228432   -0.415692    0.028241
C     0.356458    1.439672   -0.118618    0.613472    0.068395    0.011202
O    -2.296089   -1.212048    0.028485   -0.068878   -0.065815    0.003624
O     0.154530    2.650253   -0.224649   -0.010633   -0.014465    0.000919
H     2.264352   -1.205967    0.151987    0.747024    0.866842   -0.051583
H    -1.982143    0.980245   -0.146652   -0.514003   -0.879870    0.057733
H     2.280155    1.046437   -0.033509   -0.265235    0.048203   -0.011156
11
* Frequency(22) 1145.1509
C     1.308691    0.599019   -0.023234   -0.294249    0.139839   -0.019524
C     1.167432   -0.821894    0.090296   -0.012585   -0.152026    0.012168
N     0.065371   -1.497731    0.116344    0.315491   -0.202536    0.025492
C    -1.187485   -0.600316    0.007642   -0.299549    0.768741   -0.072139
N    -1.025390    0.605250   -0.087968   -0.228432   -0.415692    0.028241
C     0.300680    1.433454   -0.119637    0.613472    0.068395    0.011202
O    -2.289826   -1.206064    0.028155   -0.068878   -0.065815    0.003624
O     0.155496    2.651568   -0.224732   -0.010633   -0.014465    0.000919
H     2.196431   -1.284782    0.156677    0.747024    0.866842   -0.051583
H    -1.935409    1.060244   -0.151901   -0.514003   -0.879870    0.057733
H     2.304271    1.042054   -0.032494   -0.265235    0.048203   -0.011156
11
* Frequency(22) 1145.1509
C     1.340757    0.583780   -0.021106   -0.294249    0.139839   -0.019524
C     1.168804   -0.805327    0.088970   -0.012585   -0.152026    0.012168
N     0.030991   -1.475660    0.113566    0.315491   -0.202536    0.025492
C    -1.154842   -0.684088    0.015503   -0.299549    0.768741   -0.072139
N    -1.000497    0.650549   -0.091046   -0.228432   -0.415692    0.028241
C     0.233828    1.426000   -0.120857    0.613472    0.068395    0.011202
O    -2.282320   -1.198892    0.027761   -0.068878   -0.065815    0.003624
O     0.156655    2.653145   -0.224833   -0.010633   -0.014465    0.000919
H     2.115025   -1.379245    0.162298    0.747024    0.866842   -0.051583
H    -1.879396    1.156127   -0.158193   -0.514003   -0.879870    0.057733
H     2.333174    1.036801   -0.031279   -0.265235    0.048203   -0.011156
11
* Frequency(22) 1145.1509
C     1.374659    0.567668   -0.018857   -0.294249    0.139839   -0.019524
C     1.170254   -0.787811    0.087568   -0.012585   -0.152026    0.012168
N    -0.005359   -1.452325    0.110629    0.315491   -0.202536    0.025492
C    -1.120329   -0.772660    0.023815   -0.299549    0.768741   -0.072139
N    -0.974178    0.698443   -0.094300   -0.228432   -0.415692    0.028241
C     0.163146    1.418120   -0.122148    0.613472    0.068395    0.011202
O    -2.274384   -1.191309    0.027343   -0.068878   -0.065815    0.003624
O     0.157880    2.654811   -0.224938   -0.010633   -0.014465    0.000919
H     2.028956   -1.479119    0.168241    0.747024    0.866842   -0.051583
H    -1.820175    1.257502   -0.164844   -0.514003   -0.879870    0.057733
H     2.363734    1.031248   -0.029993   -0.265235    0.048203   -0.011156
11
* Frequency(22) 1145.1509
C     1.406724    0.552430   -0.016729   -0.294249    0.139839   -0.019524
C     1.171625   -0.771245    0.086242   -0.012585   -0.152026    0.012168
N    -0.039739   -1.430254    0.107851    0.315491   -0.202536    0.025492
C    -1.087687   -0.856432    0.031676   -0.299549    0.768741   -0.072139
N    -0.949285    0.743743   -0.097377   -0.228432   -0.415692    0.028241
C     0.096293    1.410667   -0.123369    0.613472    0.068395    0.011202
O    -2.266879   -1.184137    0.026948   -0.068878   -0.065815    0.003624
O     0.159039    2.656388   -0.225039   -0.010633   -0.014465    0.000919
H     1.947550   -1.573582    0.173862    0.747024    0.866842   -0.051583
H    -1.764162    1.353385   -0.171136   -0.514003   -0.879870    0.057733
H     2.392637    1.025995   -0.028778   -0.265235    0.048203   -0.011156
11
* Frequency(22) 1145.1509
C     1.433478    0.539715   -0.014954   -0.294249    0.139839   -0.019524
C     1.172770   -0.757422    0.085136   -0.012585   -0.152026    0.012168
N    -0.068424   -1.411839    0.105534    0.315491   -0.202536    0.025492
C    -1.060451   -0.926327    0.038235   -0.299549    0.768741   -0.072139
N    -0.928515    0.781538   -0.099945   -0.228432   -0.415692    0.028241
C     0.040516    1.404448   -0.124387    0.613472    0.068395    0.011202
O    -2.260616   -1.178153    0.026619   -0.068878   -0.065815    0.003624
O     0.160006    2.657703   -0.225122   -0.010633   -0.014465    0.000919
H     1.879629   -1.652397    0.178552    0.747024    0.866842   -0.051583
H    -1.717428    1.433384   -0.176385   -0.514003   -0.879870    0.057733
H     2.416753    1.021612   -0.027763   -0.265235    0.048203   -0.011156
11
* Frequency(22) 1145.1509
C     1.452021    0.530903   -0.013724   -0.294249    0.139839   -0.019524
C     1.173563   -0.747842    0.084369   -0.012585   -0.152026    0.012168
N    -0.088305   -1.399076    0.103927    0.315491   -0.202536    0.025492
C    -1.041574   -0.974771    0.042781   -0.299549    0.768741   -0.072139
N    -0.914120    0.807734   -0.101725   -0.228432   -0.415692    0.028241
C     0.001856    1.400138   -0.125093    0.613472    0.068395    0.011202
O    -2.256275   -1.174005    0.026390   -0.068878   -0.065815    0.003624
O     0.160676    2.658614   -0.225180   -0.010633   -0.014465    0.000919
H     1.832554   -1.707023    0.181803    0.747024    0.866842   -0.051583
H    -1.685037    1.488831   -0.180023   -0.514003   -0.879870    0.057733
H     2.433467    1.018575   -0.027060   -0.265235    0.048203   -0.011156
11
* Frequency(22) 1145.1509
C     1.460343    0.526948   -0.013171   -0.294249    0.139839   -0.019524
C     1.173919   -0.743542    0.084025   -0.012585   -0.152026    0.012168
N    -0.097229   -1.393347    0.103206    0.315491   -0.202536    0.025492
C    -1.033102   -0.996514    0.044821   -0.299549    0.768741   -0.072139
N    -0.907659    0.819491   -0.102523   -0.228432   -0.415692    0.028241
C    -0.015495    1.398204   -0.125410    0.613472    0.068395    0.011202
O    -2.254327   -1.172143    0.026288   -0.068878   -0.065815    0.003624
O     0.160976    2.659023   -0.225206   -0.010633   -0.014465    0.000919
H     1.811425   -1.731540    0.183262    0.747024    0.866842   -0.051583
H    -1.670499    1.513717   -0.181656   -0.514003   -0.879870    0.057733
H     2.440969    1.017211   -0.026745   -0.265235    0.048203   -0.011156
11
* Frequency(22) 1145.1509
C     1.457544    0.528278   -0.013357   -0.294249    0.139839   -0.019524
C     1.173799   -0.744988    0.084141   -0.012585   -0.152026    0.012168
N    -0.094227   -1.395274    0.103449    0.315491   -0.202536    0.025492
C    -1.035952   -0.989200    0.044135   -0.299549    0.768741   -0.072139
N    -0.909832    0.815536   -0.102255   -0.228432   -0.415692    0.028241
C    -0.009658    1.398855   -0.125303    0.613472    0.068395    0.011202
O    -2.254983   -1.172770    0.026322   -0.068878   -0.065815    0.003624
O     0.160875    2.658886   -0.225197   -0.010633   -0.014465    0.000919
H     1.818533   -1.723293    0.182771    0.747024    0.866842   -0.051583
H    -1.675389    1.505346   -0.181107   -0.514003   -0.879870    0.057733
H     2.438446    1.017670   -0.026851   -0.265235    0.048203   -0.011156
11
* Frequency(22) 1145.1509
C     1.443925    0.534750   -0.014261   -0.294249    0.139839   -0.019524
C     1.173216   -0.752025    0.084704   -0.012585   -0.152026    0.012168
N    -0.079625   -1.404648    0.104629    0.315491   -0.202536    0.025492
C    -1.049816   -0.953621    0.040796   -0.299549    0.768741   -0.072139
N    -0.920405    0.796297   -0.100948   -0.228432   -0.415692    0.028241
C     0.018734    1.402020   -0.124785    0.613472    0.068395    0.011202
O    -2.258170   -1.175816    0.026490   -0.068878   -0.065815    0.003624
O     0.160383    2.658216   -0.225155   -0.010633   -0.014465    0.000919
H     1.853106   -1.683174    0.180384    0.747024    0.866842   -0.051583
H    -1.699178    1.464624   -0.178435   -0.514003   -0.879870    0.057733
H     2.426170    1.019901   -0.027367   -0.265235    0.048203   -0.011156
11
* Frequency(22) 1145.1509
C     1.420964    0.545662   -0.015784   -0.294249    0.139839   -0.019524
C     1.172234   -0.763888    0.085653   -0.012585   -0.152026    0.012168
N    -0.055006   -1.420452    0.106618    0.315491   -0.202536    0.025492
C    -1.073191   -0.893634    0.035167   -0.299549    0.768741   -0.072139
N    -0.938230    0.763859   -0.098744   -0.228432   -0.415692    0.028241
C     0.066606    1.407357   -0.123911    0.613472    0.068395    0.011202
O    -2.263545   -1.180952    0.026773   -0.068878   -0.065815    0.003624
O     0.159553    2.657088   -0.225083   -0.010633   -0.014465    0.000919
H     1.911399   -1.615531    0.176358    0.747024    0.866842   -0.051583
H    -1.739288    1.395964   -0.173930   -0.514003   -0.879870    0.057733
H     2.405473    1.023662   -0.028238   -0.265235    0.048203   -0.011156
11
* Frequency(22) 1145.1509
C     1.391148    0.559832   -0.017763   -0.294249    0.139839   -0.019524
C     1.170959   -0.779292    0.086886   -0.012585   -0.152026    0.012168
N    -0.023038   -1.440975    0.109201    0.315491   -0.202536    0.025492
C    -1.103544   -0.815737    0.027857   -0.299549    0.768741   -0.072139
N    -0.961377    0.721737   -0.095882   -0.228432   -0.415692    0.028241
C     0.128769    1.414288   -0.122776    0.613472    0.068395    0.011202
O    -2.270525   -1.187621    0.027140   -0.068878   -0.065815    0.003624
O     0.158476    2.655622   -0.224990   -0.010633   -0.014465    0.000919
H     1.987095   -1.527694    0.171132    0.747024    0.866842   -0.051583
H    -1.791372    1.306807   -0.168079   -0.514003   -0.879870    0.057733
H     2.378597    1.028547   -0.029368   -0.265235    0.048203   -0.011156
11
* Frequency(22) 1145.1509
C     1.357708    0.575724   -0.019982   -0.294249    0.139839   -0.019524
C     1.169529   -0.796569    0.088269   -0.012585   -0.152026    0.012168
N     0.012816   -1.463992    0.112098    0.315491   -0.202536    0.025492
C    -1.137586   -0.728374    0.019659   -0.299549    0.768741   -0.072139
N    -0.987337    0.674496   -0.092673   -0.228432   -0.415692    0.028241
C     0.198487    1.422060   -0.121503    0.613472    0.068395    0.011202
O    -2.278352   -1.195100    0.027552   -0.068878   -0.065815    0.003624
O     0.157268    2.653978   -0.224886   -0.010633   -0.014465    0.000919
H     2.071990   -1.429182    0.165269    0.747024    0.866842   -0.051583
H    -1.849786    1.206815   -0.161518   -0.514003   -0.879870    0.057733
H     2.348454    1.034025   -0.030636   -0.265235    0.048203   -0.011156
