11
* (null), Energy   -1000.0000000
C     1.357708    0.575724   -0.019982    0.008278   -0.024135   -0.293713
C     1.169529   -0.796569    0.088269   -0.000085    0.000860    0.008735
N     0.012816   -1.463992    0.112098   -0.006746    0.020872    0.250833
C    -1.137586   -0.728374    0.019659   -0.004239    0.012519    0.153040
N    -0.987337    0.674496   -0.092673   -0.032324    0.096770    1.166416
C     0.198487    1.422060   -0.121503   -0.001928    0.006699    0.081262
O    -2.278352   -1.195100    0.027552    0.020386   -0.063349   -0.761246
O     0.157268    2.653978   -0.224886    0.012252   -0.036576   -0.440754
H     2.071990   -1.429182    0.165269    0.002259   -0.006496   -0.079045
H    -1.849786    1.206815   -0.161518   -0.025746    0.078124    0.941242
H     2.348454    1.034025   -0.030636    0.024223   -0.072019   -0.874055
11
* Frequency(6)  156.8627
C     1.358649    0.572981   -0.053361    0.008278   -0.024135   -0.293713
C     1.169519   -0.796472    0.089262   -0.000085    0.000860    0.008735
N     0.012049   -1.461620    0.140604   -0.006746    0.020872    0.250833
C    -1.138068   -0.726951    0.037051   -0.004239    0.012519    0.153040
N    -0.991011    0.685494    0.039884   -0.032324    0.096770    1.166416
C     0.198267    1.422822   -0.112268   -0.001928    0.006699    0.081262
O    -2.276036   -1.202299   -0.058960    0.020386   -0.063349   -0.761246
O     0.158660    2.649821   -0.274975    0.012252   -0.036576   -0.440754
H     2.072247   -1.429920    0.156286    0.002259   -0.006496   -0.079045
H    -1.852712    1.215693   -0.054551   -0.025746    0.078124    0.941242
H     2.351207    1.025840   -0.129968    0.024223   -0.072019   -0.874055
11
* Frequency(6)  156.8627
C     1.359487    0.570536   -0.083122    0.008278   -0.024135   -0.293713
C     1.169511   -0.796384    0.090147   -0.000085    0.000860    0.008735
N     0.011366   -1.459505    0.166021   -0.006746    0.020872    0.250833
C    -1.138497   -0.725683    0.052559   -0.004239    0.012519    0.153040
N    -0.994286    0.695299    0.158077   -0.032324    0.096770    1.166416
C     0.198072    1.423501   -0.104034   -0.001928    0.006699    0.081262
O    -2.273970   -1.208719   -0.136097    0.020386   -0.063349   -0.761246
O     0.159902    2.646115   -0.319636    0.012252   -0.036576   -0.440754
H     2.072476   -1.430578    0.148277    0.002259   -0.006496   -0.079045
H    -1.855320    1.223609    0.040825   -0.025746    0.078124    0.941242
H     2.353661    1.018542   -0.218536    0.024223   -0.072019   -0.874055
11
* Frequency(6)  156.8627
C     1.360133    0.568653   -0.106042    0.008278   -0.024135   -0.293713
C     1.169504   -0.796317    0.090829   -0.000085    0.000860    0.008735
N     0.010839   -1.457877    0.185594   -0.006746    0.020872    0.250833
C    -1.138828   -0.724706    0.064501   -0.004239    0.012519    0.153040
N    -0.996809    0.702851    0.249097   -0.032324    0.096770    1.166416
C     0.197922    1.424023   -0.097692   -0.001928    0.006699    0.081262
O    -2.272379   -1.213662   -0.195500    0.020386   -0.063349   -0.761246
O     0.160858    2.643261   -0.354030    0.012252   -0.036576   -0.440754
H     2.072652   -1.431085    0.142109    0.002259   -0.006496   -0.079045
H    -1.857329    1.229706    0.114273   -0.025746    0.078124    0.941242
H     2.355551    1.012922   -0.286742    0.024223   -0.072019   -0.874055
11
* Frequency(6)  156.8627
C     1.360517    0.567536   -0.119636    0.008278   -0.024135   -0.293713
C     1.169500   -0.796277    0.091233   -0.000085    0.000860    0.008735
N     0.010527   -1.456911    0.197203   -0.006746    0.020872    0.250833
C    -1.139024   -0.724127    0.071584   -0.004239    0.012519    0.153040
N    -0.998305    0.707329    0.303081   -0.032324    0.096770    1.166416
C     0.197832    1.424333   -0.093931   -0.001928    0.006699    0.081262
O    -2.271436   -1.216594   -0.230731    0.020386   -0.063349   -0.761246
O     0.161425    2.641568   -0.374429    0.012252   -0.036576   -0.440754
H     2.072757   -1.431386    0.138450    0.002259   -0.006496   -0.079045
H    -1.858521    1.233321    0.157836   -0.025746    0.078124    0.941242
H     2.356673    1.009589   -0.327194    0.024223   -0.072019   -0.874055
11
* Frequency(6)  156.8627
C     1.360595    0.567306   -0.122430    0.008278   -0.024135   -0.293713
C     1.169499   -0.796269    0.091316   -0.000085    0.000860    0.008735
N     0.010463   -1.456712    0.199590   -0.006746    0.020872    0.250833
C    -1.139065   -0.724008    0.073040   -0.004239    0.012519    0.153040
N    -0.998612    0.708250    0.314179   -0.032324    0.096770    1.166416
C     0.197814    1.424397   -0.093158   -0.001928    0.006699    0.081262
O    -2.271242   -1.217197   -0.237974    0.020386   -0.063349   -0.761246
O     0.161541    2.641220   -0.378622    0.012252   -0.036576   -0.440754
H     2.072779   -1.431448    0.137698    0.002259   -0.006496   -0.079045
H    -1.858766    1.234065    0.166791   -0.025746    0.078124    0.941242
H     2.356903    1.008904   -0.335511    0.024223   -0.072019   -0.874055
11
* Frequency(6)  156.8627
C     1.360361    0.567989   -0.114123    0.008278   -0.024135   -0.293713
C     1.169502   -0.796294    0.091069   -0.000085    0.000860    0.008735
N     0.010654   -1.457302    0.192495   -0.006746    0.020872    0.250833
C    -1.138945   -0.724362    0.068711   -0.004239    0.012519    0.153040
N    -0.997698    0.705513    0.281188   -0.032324    0.096770    1.166416
C     0.197869    1.424208   -0.095457   -0.001928    0.006699    0.081262
O    -2.271818   -1.215405   -0.216443    0.020386   -0.063349   -0.761246
O     0.161195    2.642255   -0.366156    0.012252   -0.036576   -0.440754
H     2.072715   -1.431264    0.139934    0.002259   -0.006496   -0.079045
H    -1.858038    1.231855    0.140169   -0.025746    0.078124    0.941242
H     2.356218    1.010941   -0.310789    0.024223   -0.072019   -0.874055
11
* Frequency(6)  156.8627
C     1.359839    0.569510   -0.095614    0.008278   -0.024135   -0.293713
C     1.169507   -0.796348    0.090519   -0.000085    0.000860    0.008735
N     0.011079   -1.458618    0.176688   -0.006746    0.020872    0.250833
C    -1.138678   -0.725151    0.059067   -0.004239    0.012519    0.153040
N    -0.995661    0.699415    0.207683   -0.032324    0.096770    1.166416
C     0.197990    1.423785   -0.100578   -0.001928    0.006699    0.081262
O    -2.273103   -1.211413   -0.168472    0.020386   -0.063349   -0.761246
O     0.160423    2.644560   -0.338381    0.012252   -0.036576   -0.440754
H     2.072572   -1.430855    0.144915    0.002259   -0.006496   -0.079045
H    -1.856415    1.226932    0.080855   -0.025746    0.078124    0.941242
H     2.354691    1.015479   -0.255708    0.024223   -0.072019   -0.874055
11
* Frequency(6)  156.8627
C     1.359087    0.571704   -0.068909    0.008278   -0.024135   -0.293713
C     1.169515   -0.796426    0.089724   -0.000085    0.000860    0.008735
N     0.011692   -1.460515    0.153882   -0.006746    0.020872    0.250833
C    -1.138292   -0.726289    0.045153   -0.004239    0.012519    0.153040
N    -0.992722    0.690616    0.101631   -0.032324    0.096770    1.166416
C     0.198165    1.423176   -0.107966   -0.001928    0.006699    0.081262
O    -2.274956   -1.205653   -0.099258    0.020386   -0.063349   -0.761246
O     0.159309    2.647885   -0.298307    0.012252   -0.036576   -0.440754
H     2.072367   -1.430264    0.152102    0.002259   -0.006496   -0.079045
H    -1.854074    1.219829   -0.004725   -0.025746    0.078124    0.941242
H     2.352489    1.022028   -0.176238    0.024223   -0.072019   -0.874055
11
* Frequency(6)  156.8627
C     1.358185    0.574334   -0.036902    0.008278   -0.024135   -0.293713
C     1.169524   -0.796520    0.088772   -0.000085    0.000860    0.008735
N     0.012427   -1.462790    0.126548   -0.006746    0.020872    0.250833
C    -1.137830   -0.727653    0.028475   -0.004239    0.012519    0.153040
N    -0.989200    0.680071   -0.025478   -0.032324    0.096770    1.166416
C     0.198375    1.422446   -0.116821   -0.001928    0.006699    0.081262
O    -2.277178   -1.198750   -0.016302    0.020386   -0.063349   -0.761246
O     0.157973    2.651871   -0.250277    0.012252   -0.036576   -0.440754
H     2.072121   -1.429556    0.160716    0.002259   -0.006496   -0.079045
H    -1.851269    1.211315   -0.107295   -0.025746    0.078124    0.941242
H     2.349849    1.029876   -0.080989    0.024223   -0.072019   -0.874055
11
* Frequency(6)  156.8627
C     1.357231    0.577115   -0.003061    0.008278   -0.024135   -0.293713
C     1.169534   -0.796619    0.087766   -0.000085    0.000860    0.008735
N     0.013205   -1.465195    0.097648   -0.006746    0.020872    0.250833
C    -1.137342   -0.729095    0.010842   -0.004239    0.012519    0.153040
N    -0.985475    0.668921   -0.159868   -0.032324    0.096770    1.166416
C     0.198598    1.421674   -0.126184   -0.001928    0.006699    0.081262
O    -2.279527   -1.191451    0.071406    0.020386   -0.063349   -0.761246
O     0.156562    2.656085   -0.199495    0.012252   -0.036576   -0.440754
H     2.071860   -1.428808    0.169823    0.002259   -0.006496   -0.079045
H    -1.848302    1.202314   -0.215742   -0.025746    0.078124    0.941242
H     2.347059    1.038173    0.019717    0.024223   -0.072019   -0.874055
11
* Frequency(6)  156.8627
C     1.356329    0.579745    0.028946    0.008278   -0.024135   -0.293713
C     1.169543   -0.796713    0.086814   -0.000085    0.000860    0.008735
N     0.013940   -1.467469    0.070314   -0.006746    0.020872    0.250833
C    -1.136880   -0.730459   -0.005835   -0.004239    0.012519    0.153040
N    -0.981953    0.658376   -0.286976   -0.032324    0.096770    1.166416
C     0.198808    1.420944   -0.135039   -0.001928    0.006699    0.081262
O    -2.281748   -1.184547    0.154361    0.020386   -0.063349   -0.761246
O     0.155227    2.660071   -0.151464    0.012252   -0.036576   -0.440754
H     2.071614   -1.428100    0.178437    0.002259   -0.006496   -0.079045
H    -1.845497    1.193800   -0.318312   -0.025746    0.078124    0.941242
H     2.344419    1.046022    0.114965    0.024223   -0.072019   -0.874055
11
* Frequency(6)  156.8627
C     1.355576    0.581939    0.055651    0.008278   -0.024135   -0.293713
C     1.169551   -0.796791    0.086020   -0.000085    0.000860    0.008735
N     0.014553   -1.469367    0.047508   -0.006746    0.020872    0.250833
C    -1.136494   -0.731598   -0.019750   -0.004239    0.012519    0.153040
N    -0.979014    0.649578   -0.393029   -0.032324    0.096770    1.166416
C     0.198983    1.420335   -0.142428   -0.001928    0.006699    0.081262
O    -2.283602   -1.178788    0.223575    0.020386   -0.063349   -0.761246
O     0.154113    2.663396   -0.111390    0.012252   -0.036576   -0.440754
H     2.071409   -1.427509    0.185624    0.002259   -0.006496   -0.079045
H    -1.843156    1.186697   -0.403892   -0.025746    0.078124    0.941242
H     2.342217    1.052570    0.194436    0.024223   -0.072019   -0.874055
11
* Frequency(6)  156.8627
C     1.355054    0.583460    0.074160    0.008278   -0.024135   -0.293713
C     1.169556   -0.796845    0.085469   -0.000085    0.000860    0.008735
N     0.014978   -1.470682    0.031701   -0.006746    0.020872    0.250833
C    -1.136227   -0.732387   -0.029394   -0.004239    0.012519    0.153040
N    -0.976977    0.643479   -0.466533   -0.032324    0.096770    1.166416
C     0.199105    1.419913   -0.147549   -0.001928    0.006699    0.081262
O    -2.284887   -1.174796    0.271547    0.020386   -0.063349   -0.761246
O     0.153340    2.665701   -0.083615    0.012252   -0.036576   -0.440754
H     2.071266   -1.427100    0.190605    0.002259   -0.006496   -0.079045
H    -1.841533    1.181774   -0.463206   -0.025746    0.078124    0.941242
H     2.340690    1.057108    0.249517    0.024223   -0.072019   -0.874055
11
* Frequency(6)  156.8627
C     1.354820    0.584142    0.082467    0.008278   -0.024135   -0.293713
C     1.169558   -0.796869    0.085222   -0.000085    0.000860    0.008735
N     0.015169   -1.471273    0.024606   -0.006746    0.020872    0.250833
C    -1.136107   -0.732741   -0.033722   -0.004239    0.012519    0.153040
N    -0.976063    0.640742   -0.499524   -0.032324    0.096770    1.166416
C     0.199159    1.419724   -0.149847   -0.001928    0.006699    0.081262
O    -2.285463   -1.173004    0.293078    0.020386   -0.063349   -0.761246
O     0.152994    2.666736   -0.071149    0.012252   -0.036576   -0.440754
H     2.071202   -1.426916    0.192841    0.002259   -0.006496   -0.079045
H    -1.840805    1.179564   -0.489828   -0.025746    0.078124    0.941242
H     2.340005    1.059145    0.274238    0.024223   -0.072019   -0.874055
11
* Frequency(6)  156.8627
C     1.354899    0.583913    0.079672    0.008278   -0.024135   -0.293713
C     1.169558   -0.796861    0.085305   -0.000085    0.000860    0.008735
N     0.015105   -1.471074    0.026993   -0.006746    0.020872    0.250833
C    -1.136148   -0.732622   -0.032266   -0.004239    0.012519    0.153040
N    -0.976370    0.641663   -0.488426   -0.032324    0.096770    1.166416
C     0.199141    1.419787   -0.149074   -0.001928    0.006699    0.081262
O    -2.285269   -1.173607    0.285835    0.020386   -0.063349   -0.761246
O     0.153110    2.666388   -0.075342    0.012252   -0.036576   -0.440754
H     2.071224   -1.426978    0.192089    0.002259   -0.006496   -0.079045
H    -1.841050    1.180308   -0.480873   -0.025746    0.078124    0.941242
H     2.340235    1.058460    0.265922    0.024223   -0.072019   -0.874055
11
* Frequency(6)  156.8627
C     1.355282    0.582796    0.066079    0.008278   -0.024135   -0.293713
C     1.169554   -0.796821    0.085710   -0.000085    0.000860    0.008735
N     0.014793   -1.470108    0.038602   -0.006746    0.020872    0.250833
C    -1.136344   -0.732042   -0.025183   -0.004239    0.012519    0.153040
N    -0.977866    0.646142   -0.434442   -0.032324    0.096770    1.166416
C     0.199052    1.420097   -0.145313   -0.001928    0.006699    0.081262
O    -2.284326   -1.176538    0.250603    0.020386   -0.063349   -0.761246
O     0.153678    2.664695   -0.095741    0.012252   -0.036576   -0.440754
H     2.071328   -1.427278    0.188430    0.002259   -0.006496   -0.079045
H    -1.842242    1.183923   -0.437310   -0.025746    0.078124    0.941242
H     2.341356    1.055127    0.225469    0.024223   -0.072019   -0.874055
11
* Frequency(6)  156.8627
C     1.355928    0.580913    0.043159    0.008278   -0.024135   -0.293713
C     1.169547   -0.796754    0.086391   -0.000085    0.000860    0.008735
N     0.014266   -1.468479    0.058175   -0.006746    0.020872    0.250833
C    -1.136675   -0.731065   -0.013241   -0.004239    0.012519    0.153040
N    -0.980388    0.653693   -0.343423   -0.032324    0.096770    1.166416
C     0.198901    1.420620   -0.138972   -0.001928    0.006699    0.081262
O    -2.282735   -1.181482    0.191200    0.020386   -0.063349   -0.761246
O     0.154634    2.661841   -0.130135    0.012252   -0.036576   -0.440754
H     2.071505   -1.427785    0.182262    0.002259   -0.006496   -0.079045
H    -1.844251    1.190020   -0.363861   -0.025746    0.078124    0.941242
H     2.343247    1.049507    0.157264    0.024223   -0.072019   -0.874055
11
* Frequency(6)  156.8627
C     1.356767    0.578467    0.013397    0.008278   -0.024135   -0.293713
C     1.169538   -0.796667    0.087276   -0.000085    0.000860    0.008735
N     0.013583   -1.466364    0.083592   -0.006746    0.020872    0.250833
C    -1.137104   -0.729797    0.002267   -0.004239    0.012519    0.153040
N    -0.983664    0.663499   -0.225230   -0.032324    0.096770    1.166416
C     0.198706    1.421299   -0.130738   -0.001928    0.006699    0.081262
O    -2.280669   -1.187901    0.114064    0.020386   -0.063349   -0.761246
O     0.155875    2.658135   -0.174796    0.012252   -0.036576   -0.440754
H     2.071734   -1.428444    0.174252    0.002259   -0.006496   -0.079045
H    -1.846860    1.197936   -0.268486   -0.025746    0.078124    0.941242
H     2.345701    1.042209    0.068696    0.024223   -0.072019   -0.874055
11
* Frequency(6)  156.8627
C     1.357708    0.575724   -0.019982    0.008278   -0.024135   -0.293713
C     1.169529   -0.796569    0.088269   -0.000085    0.000860    0.008735
N     0.012816   -1.463992    0.112098   -0.006746    0.020872    0.250833
C    -1.137586   -0.728374    0.019659   -0.004239    0.012519    0.153040
N    -0.987337    0.674496   -0.092673   -0.032324    0.096770    1.166416
C     0.198487    1.422060   -0.121503   -0.001928    0.006699    0.081262
O    -2.278352   -1.195100    0.027552    0.020386   -0.063349   -0.761246
O     0.157268    2.653978   -0.224886    0.012252   -0.036576   -0.440754
H     2.071990   -1.429182    0.165269    0.002259   -0.006496   -0.079045
H    -1.849786    1.206815   -0.161518   -0.025746    0.078124    0.941242
H     2.348454    1.034025   -0.030636    0.024223   -0.072019   -0.874055
