11
* (null), Energy   -1000.0000000
C     1.591454    0.406609    0.009810    0.429283   -0.729512    0.072309
C     1.402862   -0.965542    0.118363   -0.494054    0.307790   -0.039189
N     0.246024   -1.632751    0.142050    0.602952   -0.087317    0.023829
C    -0.904486   -0.897558    0.049520   -0.111724    0.479110   -0.042829
N    -0.754011    0.505509   -0.063362    0.224416   -0.050853    0.010324
C     0.431975    1.252895   -0.092416   -0.553079   -0.240368    0.004447
O    -2.045071   -1.364389    0.057523   -0.159877   -0.116223    0.005277
O     0.390516    2.484935   -0.194533    0.036937    0.304329   -0.023978
H     2.305441   -1.598210    0.195810   -0.592808    0.201594   -0.032774
H    -1.616489    1.037825   -0.130328    0.165554   -0.153177    0.017722
H     2.582079    0.864994   -0.000426   -0.425031    1.066285   -0.099998
11
* Frequency(26) 1490.0380
C     1.640240    0.323704    0.018028    0.429283   -0.729512    0.072309
C     1.346715   -0.930563    0.113910   -0.494054    0.307790   -0.039189
N     0.314546   -1.642674    0.144758    0.602952   -0.087317    0.023829
C    -0.917183   -0.843110    0.044652   -0.111724    0.479110   -0.042829
N    -0.728507    0.499730   -0.062188    0.224416   -0.050853    0.010324
C     0.369121    1.225579   -0.091911   -0.553079   -0.240368    0.004447
O    -2.063240   -1.377597    0.058123   -0.159877   -0.116223    0.005277
O     0.394714    2.519520   -0.197258    0.036937    0.304329   -0.023978
H     2.238071   -1.575300    0.192085   -0.592808    0.201594   -0.032774
H    -1.597675    1.020417   -0.128314    0.165554   -0.153177    0.017722
H     2.533777    0.986171   -0.011790   -0.425031    1.066285   -0.099998
11
* Frequency(26) 1490.0380
C     1.683739    0.249783    0.025355    0.429283   -0.729512    0.072309
C     1.296653   -0.899375    0.109939   -0.494054    0.307790   -0.039189
N     0.375643   -1.651522    0.147172    0.602952   -0.087317    0.023829
C    -0.928504   -0.794562    0.040312   -0.111724    0.479110   -0.042829
N    -0.705767    0.494577   -0.061142    0.224416   -0.050853    0.010324
C     0.313077    1.201222   -0.091460   -0.553079   -0.240368    0.004447
O    -2.079440   -1.389374    0.058657   -0.159877   -0.116223    0.005277
O     0.398457    2.550358   -0.199688    0.036937    0.304329   -0.023978
H     2.178002   -1.554872    0.188764   -0.592808    0.201594   -0.032774
H    -1.580899    1.004896   -0.126518    0.165554   -0.153177    0.017722
H     2.490709    1.094218   -0.021923   -0.425031    1.066285   -0.099998
11
* Frequency(26) 1490.0380
C     1.717238    0.192856    0.030998    0.429283   -0.729512    0.072309
C     1.258100   -0.875357    0.106881   -0.494054    0.307790   -0.039189
N     0.422694   -1.658335    0.149032    0.602952   -0.087317    0.023829
C    -0.937223   -0.757175    0.036970   -0.111724    0.479110   -0.042829
N    -0.688255    0.490609   -0.060337    0.224416   -0.050853    0.010324
C     0.269918    1.182465   -0.091113   -0.553079   -0.240368    0.004447
O    -2.091916   -1.398443    0.059069   -0.159877   -0.116223    0.005277
O     0.401339    2.574106   -0.201559    0.036937    0.304329   -0.023978
H     2.131743   -1.539141    0.186207   -0.592808    0.201594   -0.032774
H    -1.567980    0.992943   -0.125135    0.165554   -0.153177    0.017722
H     2.457542    1.177424   -0.029726   -0.425031    1.066285   -0.099998
11
* Frequency(26) 1490.0380
C     1.737106    0.159093    0.034344    0.429283   -0.729512    0.072309
C     1.235234   -0.861112    0.105067   -0.494054    0.307790   -0.039189
N     0.450599   -1.662377    0.150135    0.602952   -0.087317    0.023829
C    -0.942394   -0.735001    0.034988   -0.111724    0.479110   -0.042829
N    -0.677869    0.488255   -0.059859    0.224416   -0.050853    0.010324
C     0.244321    1.171341   -0.090907   -0.553079   -0.240368    0.004447
O    -2.099315   -1.403822    0.059313   -0.159877   -0.116223    0.005277
O     0.403048    2.588191   -0.202668    0.036937    0.304329   -0.023978
H     2.104307   -1.529811    0.184690   -0.592808    0.201594   -0.032774
H    -1.560318    0.985853   -0.124315    0.165554   -0.153177    0.017722
H     2.437871    1.226773   -0.034354   -0.425031    1.066285   -0.099998
11
* Frequency(26) 1490.0380
C     1.741190    0.152152    0.035032    0.429283   -0.729512    0.072309
C     1.230534   -0.858183    0.104694   -0.494054    0.307790   -0.039189
N     0.456336   -1.663207    0.150361    0.602952   -0.087317    0.023829
C    -0.943457   -0.730443    0.034580   -0.111724    0.479110   -0.042829
N    -0.675734    0.487771   -0.059761    0.224416   -0.050853    0.010324
C     0.239059    1.169054   -0.090865   -0.553079   -0.240368    0.004447
O    -2.100837   -1.404928    0.059364   -0.159877   -0.116223    0.005277
O     0.403400    2.591086   -0.202897    0.036937    0.304329   -0.023978
H     2.098667   -1.527893    0.184378   -0.592808    0.201594   -0.032774
H    -1.558743    0.984396   -0.124146    0.165554   -0.153177    0.017722
H     2.433827    1.236919   -0.035306   -0.425031    1.066285   -0.099998
11
* Frequency(26) 1490.0380
C     1.729048    0.172786    0.032987    0.429283   -0.729512    0.072309
C     1.244507   -0.866889    0.105802   -0.494054    0.307790   -0.039189
N     0.439282   -1.660738    0.149687    0.602952   -0.087317    0.023829
C    -0.940296   -0.743994    0.035792   -0.111724    0.479110   -0.042829
N    -0.682081    0.489210   -0.060053    0.224416   -0.050853    0.010324
C     0.254702    1.175852   -0.090991   -0.553079   -0.240368    0.004447
O    -2.096315   -1.401641    0.059214   -0.159877   -0.116223    0.005277
O     0.402355    2.582478   -0.202218    0.036937    0.304329   -0.023978
H     2.115434   -1.533595    0.185305   -0.592808    0.201594   -0.032774
H    -1.563425    0.988728   -0.124648    0.165554   -0.153177    0.017722
H     2.445848    1.206760   -0.032477   -0.425031    1.066285   -0.099998
11
* Frequency(26) 1490.0380
C     1.701996    0.218757    0.028430    0.429283   -0.729512    0.072309
C     1.275641   -0.886285    0.108272   -0.494054    0.307790   -0.039189
N     0.401286   -1.655235    0.148186    0.602952   -0.087317    0.023829
C    -0.933256   -0.774186    0.038491   -0.111724    0.479110   -0.042829
N    -0.696223    0.492414   -0.060703    0.224416   -0.050853    0.010324
C     0.289555    1.191000   -0.091271   -0.553079   -0.240368    0.004447
O    -2.086240   -1.394317    0.058882   -0.159877   -0.116223    0.005277
O     0.400027    2.563300   -0.200707    0.036937    0.304329   -0.023978
H     2.152791   -1.546299    0.187371   -0.592808    0.201594   -0.032774
H    -1.573858    0.998381   -0.125764    0.165554   -0.153177    0.017722
H     2.472632    1.139565   -0.026176   -0.425031    1.066285   -0.099998
11
* Frequency(26) 1490.0380
C     1.662965    0.285086    0.021856    0.429283   -0.729512    0.072309
C     1.320562   -0.914270    0.111835   -0.494054    0.307790   -0.039189
N     0.346465   -1.647296    0.146019    0.602952   -0.087317    0.023829
C    -0.923098   -0.817747    0.042385   -0.111724    0.479110   -0.042829
N    -0.716628    0.497038   -0.061642    0.224416   -0.050853    0.010324
C     0.339842    1.212854   -0.091675   -0.553079   -0.240368    0.004447
O    -2.071703   -1.383750    0.058402   -0.159877   -0.116223    0.005277
O     0.396669    2.535630   -0.198527    0.036937    0.304329   -0.023978
H     2.206690   -1.564628    0.190350   -0.592808    0.201594   -0.032774
H    -1.588911    1.012308   -0.127376    0.165554   -0.153177    0.017722
H     2.511277    1.042617   -0.017084   -0.425031    1.066285   -0.099998
11
* Frequency(26) 1490.0380
C     1.616185    0.364583    0.013976    0.429283   -0.729512    0.072309
C     1.374400   -0.947811    0.116106   -0.494054    0.307790   -0.039189
N     0.280759   -1.637781    0.143422    0.602952   -0.087317    0.023829
C    -0.910923   -0.869958    0.047052   -0.111724    0.479110   -0.042829
N    -0.741083    0.502580   -0.062767    0.224416   -0.050853    0.010324
C     0.400113    1.239048   -0.092160   -0.553079   -0.240368    0.004447
O    -2.054281   -1.371084    0.057827   -0.159877   -0.116223    0.005277
O     0.392644    2.502467   -0.195914    0.036937    0.304329   -0.023978
H     2.271290   -1.586597    0.193922   -0.592808    0.201594   -0.032774
H    -1.606952    1.029001   -0.129307    0.165554   -0.153177    0.017722
H     2.557594    0.926420   -0.006187   -0.425031    1.066285   -0.099998
11
* Frequency(26) 1490.0380
C     1.566724    0.448635    0.005645    0.429283   -0.729512    0.072309
C     1.431324   -0.983273    0.120621   -0.494054    0.307790   -0.039189
N     0.211289   -1.627720    0.140677    0.602952   -0.087317    0.023829
C    -0.898050   -0.925159    0.051987   -0.111724    0.479110   -0.042829
N    -0.766939    0.508439   -0.063957    0.224416   -0.050853    0.010324
C     0.463837    1.266742   -0.092672   -0.553079   -0.240368    0.004447
O    -2.035861   -1.357694    0.057219   -0.159877   -0.116223    0.005277
O     0.388388    2.467403   -0.193152    0.036937    0.304329   -0.023978
H     2.339592   -1.609823    0.197698   -0.592808    0.201594   -0.032774
H    -1.626026    1.046649   -0.131349    0.165554   -0.153177    0.017722
H     2.606565    0.803567    0.005335   -0.425031    1.066285   -0.099998
11
* Frequency(26) 1490.0380
C     1.519944    0.528132   -0.002235    0.429283   -0.729512    0.072309
C     1.485162   -1.016814    0.124892   -0.494054    0.307790   -0.039189
N     0.145583   -1.618205    0.138080    0.602952   -0.087317    0.023829
C    -0.885875   -0.977369    0.056654   -0.111724    0.479110   -0.042829
N    -0.791395    0.513980   -0.065082    0.224416   -0.050853    0.010324
C     0.524108    1.292936   -0.093157   -0.553079   -0.240368    0.004447
O    -2.018438   -1.345028    0.056644   -0.159877   -0.116223    0.005277
O     0.384363    2.434239   -0.190539    0.036937    0.304329   -0.023978
H     2.404192   -1.631792    0.201270   -0.592808    0.201594   -0.032774
H    -1.644067    1.063341   -0.133280    0.165554   -0.153177    0.017722
H     2.652882    0.687370    0.016232   -0.425031    1.066285   -0.099998
11
* Frequency(26) 1490.0380
C     1.480913    0.594461   -0.008809    0.429283   -0.729512    0.072309
C     1.530083   -1.044799    0.128455   -0.494054    0.307790   -0.039189
N     0.090762   -1.610266    0.135914    0.602952   -0.087317    0.023829
C    -0.875717   -1.020931    0.060548   -0.111724    0.479110   -0.042829
N    -0.811799    0.518604   -0.066020    0.224416   -0.050853    0.010324
C     0.574395    1.314791   -0.093561   -0.553079   -0.240368    0.004447
O    -2.003902   -1.334461    0.056164   -0.159877   -0.116223    0.005277
O     0.381005    2.406569   -0.188359    0.036937    0.304329   -0.023978
H     2.458091   -1.650121    0.204249   -0.592808    0.201594   -0.032774
H    -1.659120    1.077268   -0.134891    0.165554   -0.153177    0.017722
H     2.691526    0.590422    0.025324   -0.425031    1.066285   -0.099998
11
* Frequency(26) 1490.0380
C     1.453860    0.640433   -0.013366    0.429283   -0.729512    0.072309
C     1.561217   -1.064195    0.130924   -0.494054    0.307790   -0.039189
N     0.052765   -1.604764    0.134412    0.602952   -0.087317    0.023829
C    -0.868676   -1.051123    0.063247   -0.111724    0.479110   -0.042829
N    -0.825941    0.521809   -0.066671    0.224416   -0.050853    0.010324
C     0.609248    1.329938   -0.093841   -0.553079   -0.240368    0.004447
O    -1.993827   -1.327137    0.055832   -0.159877   -0.116223    0.005277
O     0.378677    2.387391   -0.186848    0.036937    0.304329   -0.023978
H     2.495448   -1.662825    0.206315   -0.592808    0.201594   -0.032774
H    -1.669552    1.086921   -0.136008    0.165554   -0.153177    0.017722
H     2.718310    0.523227    0.031625   -0.425031    1.066285   -0.099998
11
* Frequency(26) 1490.0380
C     1.441718    0.661066   -0.015411    0.429283   -0.729512    0.072309
C     1.575190   -1.072900    0.132033   -0.494054    0.307790   -0.039189
N     0.035712   -1.602294    0.133738    0.602952   -0.087317    0.023829
C    -0.865516   -1.064674    0.064459   -0.111724    0.479110   -0.042829
N    -0.832289    0.523247   -0.066963    0.224416   -0.050853    0.010324
C     0.624892    1.336737   -0.093967   -0.553079   -0.240368    0.004447
O    -1.989305   -1.323850    0.055682   -0.159877   -0.116223    0.005277
O     0.377632    2.378784   -0.186170    0.036937    0.304329   -0.023978
H     2.512215   -1.668527    0.207242   -0.592808    0.201594   -0.032774
H    -1.674235    1.091254   -0.136509    0.165554   -0.153177    0.017722
H     2.730332    0.493069    0.034454   -0.425031    1.066285   -0.099998
11
* Frequency(26) 1490.0380
C     1.445803    0.654125   -0.014723    0.429283   -0.729512    0.072309
C     1.570490   -1.069972    0.131660   -0.494054    0.307790   -0.039189
N     0.041448   -1.603125    0.133965    0.602952   -0.087317    0.023829
C    -0.866579   -1.060115    0.064051   -0.111724    0.479110   -0.042829
N    -0.830153    0.522763   -0.066865    0.224416   -0.050853    0.010324
C     0.619629    1.334450   -0.093925   -0.553079   -0.240368    0.004447
O    -1.990826   -1.324956    0.055733   -0.159877   -0.116223    0.005277
O     0.377984    2.381679   -0.186398    0.036937    0.304329   -0.023978
H     2.506575   -1.666609    0.206930   -0.592808    0.201594   -0.032774
H    -1.672660    1.089796   -0.136340    0.165554   -0.153177    0.017722
H     2.726288    0.503214    0.033502   -0.425031    1.066285   -0.099998
11
* Frequency(26) 1490.0380
C     1.465671    0.620362   -0.011377    0.429283   -0.729512    0.072309
C     1.547624   -1.055727    0.129846   -0.494054    0.307790   -0.039189
N     0.069354   -1.607166    0.135068    0.602952   -0.087317    0.023829
C    -0.871750   -1.037941    0.062069   -0.111724    0.479110   -0.042829
N    -0.819767    0.520410   -0.066387    0.224416   -0.050853    0.010324
C     0.594032    1.323325   -0.093719   -0.553079   -0.240368    0.004447
O    -1.998226   -1.330335    0.055977   -0.159877   -0.116223    0.005277
O     0.379693    2.395764   -0.187507    0.036937    0.304329   -0.023978
H     2.479139   -1.657279    0.205413   -0.592808    0.201594   -0.032774
H    -1.664998    1.082707   -0.135520    0.165554   -0.153177    0.017722
H     2.706617    0.552563    0.028874   -0.425031    1.066285   -0.099998
11
* Frequency(26) 1490.0380
C     1.499169    0.563436   -0.005734    0.429283   -0.729512    0.072309
C     1.509071   -1.031709    0.126788   -0.494054    0.307790   -0.039189
N     0.116405   -1.613980    0.136927    0.602952   -0.087317    0.023829
C    -0.880469   -1.000555    0.058727   -0.111724    0.479110   -0.042829
N    -0.802255    0.516441   -0.065581    0.224416   -0.050853    0.010324
C     0.550873    1.304568   -0.093372   -0.553079   -0.240368    0.004447
O    -2.010701   -1.339404    0.056389   -0.159877   -0.116223    0.005277
O     0.382576    2.419512   -0.189379    0.036937    0.304329   -0.023978
H     2.432880   -1.641548    0.202856   -0.592808    0.201594   -0.032774
H    -1.652079    1.070754   -0.134137    0.165554   -0.153177    0.017722
H     2.673450    0.635770    0.021071   -0.425031    1.066285   -0.099998
11
* Frequency(26) 1490.0380
C     1.542669    0.489514    0.001593    0.429283   -0.729512    0.072309
C     1.459009   -1.000520    0.122817   -0.494054    0.307790   -0.039189
N     0.177502   -1.622827    0.139342    0.602952   -0.087317    0.023829
C    -0.891790   -0.952007    0.054387   -0.111724    0.479110   -0.042829
N    -0.779515    0.511288   -0.064535    0.224416   -0.050853    0.010324
C     0.494830    1.280212   -0.092921   -0.553079   -0.240368    0.004447
O    -2.026902   -1.351181    0.056923   -0.159877   -0.116223    0.005277
O     0.386318    2.450349   -0.191808    0.036937    0.304329   -0.023978
H     2.372811   -1.621120    0.199535   -0.592808    0.201594   -0.032774
H    -1.635303    1.055233   -0.132342    0.165554   -0.153177    0.017722
H     2.630382    0.743816    0.010938   -0.425031    1.066285   -0.099998
11
* Frequency(26) 1490.0380
C     1.591454    0.406609    0.009810    0.429283   -0.729512    0.072309
C     1.402862   -0.965542    0.118363   -0.494054    0.307790   -0.039189
N     0.246024   -1.632751    0.142050    0.602952   -0.087317    0.023829
C    -0.904486   -0.897558    0.049520   -0.111724    0.479110   -0.042829
N    -0.754011    0.505509   -0.063362    0.224416   -0.050853    0.010324
C     0.431975    1.252895   -0.092416   -0.553079   -0.240368    0.004447
O    -2.045071   -1.364389    0.057523   -0.159877   -0.116223    0.005277
O     0.390516    2.484935   -0.194533    0.036937    0.304329   -0.023978
H     2.305441   -1.598210    0.195810   -0.592808    0.201594   -0.032774
H    -1.616489    1.037825   -0.130328    0.165554   -0.153177    0.017722
H     2.582079    0.864994   -0.000426   -0.425031    1.066285   -0.099998
