11
* (null), Energy   -1000.0000000
C     1.357708    0.575724   -0.019982    0.000000    0.000000    0.000000
C     1.169529   -0.796569    0.088269    0.000000    0.000000    0.000000
N     0.012816   -1.463992    0.112098    0.000000    0.000000    0.000000
C    -1.137586   -0.728374    0.019659    0.000000    0.000000    0.000000
N    -0.987337    0.674496   -0.092673    0.000000    0.000000    0.000000
C     0.198487    1.422060   -0.121503    0.000000    0.000000    0.000000
O    -2.278352   -1.195100    0.027552    0.000000    0.000000    0.000000
O     0.157268    2.653978   -0.224886    0.000000    0.000000    0.000000
H     2.071990   -1.429182    0.165269    0.000000    0.000000    0.000000
H    -1.849786    1.206815   -0.161518    0.000000    0.000000    0.000000
H     2.348454    1.034025   -0.030636    0.000000    0.000000    0.000000
11
* Frequency(5)    0.0000
C     1.357708    0.575724   -0.019982    0.000000    0.000000    0.000000
C     1.169529   -0.796569    0.088269    0.000000    0.000000    0.000000
N     0.012816   -1.463992    0.112098    0.000000    0.000000    0.000000
C    -1.137586   -0.728374    0.019659    0.000000    0.000000    0.000000
N    -0.987337    0.674496   -0.092673    0.000000    0.000000    0.000000
C     0.198487    1.422060   -0.121503    0.000000    0.000000    0.000000
O    -2.278352   -1.195100    0.027552    0.000000    0.000000    0.000000
O     0.157268    2.653978   -0.224886    0.000000    0.000000    0.000000
H     2.071990   -1.429182    0.165269    0.000000    0.000000    0.000000
H    -1.849786    1.206815   -0.161518    0.000000    0.000000    0.000000
H     2.348454    1.034025   -0.030636    0.000000    0.000000    0.000000
11
* Frequency(5)    0.0000
C     1.357708    0.575724   -0.019982    0.000000    0.000000    0.000000
C     1.169529   -0.796569    0.088269    0.000000    0.000000    0.000000
N     0.012816   -1.463992    0.112098    0.000000    0.000000    0.000000
C    -1.137586   -0.728374    0.019659    0.000000    0.000000    0.000000
N    -0.987337    0.674496   -0.092673    0.000000    0.000000    0.000000
C     0.198487    1.422060   -0.121503    0.000000    0.000000    0.000000
O    -2.278352   -1.195100    0.027552    0.000000    0.000000    0.000000
O     0.157268    2.653978   -0.224886    0.000000    0.000000    0.000000
H     2.071990   -1.429182    0.165269    0.000000    0.000000    0.000000
H    -1.849786    1.206815   -0.161518    0.000000    0.000000    0.000000
H     2.348454    1.034025   -0.030636    0.000000    0.000000    0.000000
11
* Frequency(5)    0.0000
C     1.357708    0.575724   -0.019982    0.000000    0.000000    0.000000
C     1.169529   -0.796569    0.088269    0.000000    0.000000    0.000000
N     0.012816   -1.463992    0.112098    0.000000    0.000000    0.000000
C    -1.137586   -0.728374    0.019659    0.000000    0.000000    0.000000
N    -0.987337    0.674496   -0.092673    0.000000    0.000000    0.000000
C     0.198487    1.422060   -0.121503    0.000000    0.000000    0.000000
O    -2.278352   -1.195100    0.027552    0.000000    0.000000    0.000000
O     0.157268    2.653978   -0.224886    0.000000    0.000000    0.000000
H     2.071990   -1.429182    0.165269    0.000000    0.000000    0.000000
H    -1.849786    1.206815   -0.161518    0.000000    0.000000    0.000000
H     2.348454    1.034025   -0.030636    0.000000    0.000000    0.000000
11
* Frequency(5)    0.0000
C     1.357708    0.575724   -0.019982    0.000000    0.000000    0.000000
C     1.169529   -0.796569    0.088269    0.000000    0.000000    0.000000
N     0.012816   -1.463992    0.112098    0.000000    0.000000    0.000000
C    -1.137586   -0.728374    0.019659    0.000000    0.000000    0.000000
N    -0.987337    0.674496   -0.092673    0.000000    0.000000    0.000000
C     0.198487    1.422060   -0.121503    0.000000    0.000000    0.000000
O    -2.278352   -1.195100    0.027552    0.000000    0.000000    0.000000
O     0.157268    2.653978   -0.224886    0.000000    0.000000    0.000000
H     2.071990   -1.429182    0.165269    0.000000    0.000000    0.000000
H    -1.849786    1.206815   -0.161518    0.000000    0.000000    0.000000
H     2.348454    1.034025   -0.030636    0.000000    0.000000    0.000000
11
* Frequency(5)    0.0000
C     1.357708    0.575724   -0.019982    0.000000    0.000000    0.000000
C     1.169529   -0.796569    0.088269    0.000000    0.000000    0.000000
N     0.012816   -1.463992    0.112098    0.000000    0.000000    0.000000
C    -1.137586   -0.728374    0.019659    0.000000    0.000000    0.000000
N    -0.987337    0.674496   -0.092673    0.000000    0.000000    0.000000
C     0.198487    1.422060   -0.121503    0.000000    0.000000    0.000000
O    -2.278352   -1.195100    0.027552    0.000000    0.000000    0.000000
O     0.157268    2.653978   -0.224886    0.000000    0.000000    0.000000
H     2.071990   -1.429182    0.165269    0.000000    0.000000    0.000000
H    -1.849786    1.206815   -0.161518    0.000000    0.000000    0.000000
H     2.348454    1.034025   -0.030636    0.000000    0.000000    0.000000
11
* Frequency(5)    0.0000
C     1.357708    0.575724   -0.019982    0.000000    0.000000    0.000000
C     1.169529   -0.796569    0.088269    0.000000    0.000000    0.000000
N     0.012816   -1.463992    0.112098    0.000000    0.000000    0.000000
C    -1.137586   -0.728374    0.019659    0.000000    0.000000    0.000000
N    -0.987337    0.674496   -0.092673    0.000000    0.000000    0.000000
C     0.198487    1.422060   -0.121503    0.000000    0.000000    0.000000
O    -2.278352   -1.195100    0.027552    0.000000    0.000000    0.000000
O     0.157268    2.653978   -0.224886    0.000000    0.000000    0.000000
H     2.071990   -1.429182    0.165269    0.000000    0.000000    0.000000
H    -1.849786    1.206815   -0.161518    0.000000    0.000000    0.000000
H     2.348454    1.034025   -0.030636    0.000000    0.000000    0.000000
11
* Frequency(5)    0.0000
C     1.357708    0.575724   -0.019982    0.000000    0.000000    0.000000
C     1.169529   -0.796569    0.088269    0.000000    0.000000    0.000000
N     0.012816   -1.463992    0.112098    0.000000    0.000000    0.000000
C    -1.137586   -0.728374    0.019659    0.000000    0.000000    0.000000
N    -0.987337    0.674496   -0.092673    0.000000    0.000000    0.000000
C     0.198487    1.422060   -0.121503    0.000000    0.000000    0.000000
O    -2.278352   -1.195100    0.027552    0.000000    0.000000    0.000000
O     0.157268    2.653978   -0.224886    0.000000    0.000000    0.000000
H     2.071990   -1.429182    0.165269    0.000000    0.000000    0.000000
H    -1.849786    1.206815   -0.161518    0.000000    0.000000    0.000000
H     2.348454    1.034025   -0.030636    0.000000    0.000000    0.000000
11
* Frequency(5)    0.0000
C     1.357708    0.575724   -0.019982    0.000000    0.000000    0.000000
C     1.169529   -0.796569    0.088269    0.000000    0.000000    0.000000
N     0.012816   -1.463992    0.112098    0.000000    0.000000    0.000000
C    -1.137586   -0.728374    0.019659    0.000000    0.000000    0.000000
N    -0.987337    0.674496   -0.092673    0.000000    0.000000    0.000000
C     0.198487    1.422060   -0.121503    0.000000    0.000000    0.000000
O    -2.278352   -1.195100    0.027552    0.000000    0.000000    0.000000
O     0.157268    2.653978   -0.224886    0.000000    0.000000    0.000000
H     2.071990   -1.429182    0.165269    0.000000    0.000000    0.000000
H    -1.849786    1.206815   -0.161518    0.000000    0.000000    0.000000
H     2.348454    1.034025   -0.030636    0.000000    0.000000    0.000000
11
* Frequency(5)    0.0000
C     1.357708    0.575724   -0.019982    0.000000    0.000000    0.000000
C     1.169529   -0.796569    0.088269    0.000000    0.000000    0.000000
N     0.012816   -1.463992    0.112098    0.000000    0.000000    0.000000
C    -1.137586   -0.728374    0.019659    0.000000    0.000000    0.000000
N    -0.987337    0.674496   -0.092673    0.000000    0.000000    0.000000
C     0.198487    1.422060   -0.121503    0.000000    0.000000    0.000000
O    -2.278352   -1.195100    0.027552    0.000000    0.000000    0.000000
O     0.157268    2.653978   -0.224886    0.000000    0.000000    0.000000
H     2.071990   -1.429182    0.165269    0.000000    0.000000    0.000000
H    -1.849786    1.206815   -0.161518    0.000000    0.000000    0.000000
H     2.348454    1.034025   -0.030636    0.000000    0.000000    0.000000
11
* Frequency(5)    0.0000
C     1.357708    0.575724   -0.019982    0.000000    0.000000    0.000000
C     1.169529   -0.796569    0.088269    0.000000    0.000000    0.000000
N     0.012816   -1.463992    0.112098    0.000000    0.000000    0.000000
C    -1.137586   -0.728374    0.019659    0.000000    0.000000    0.000000
N    -0.987337    0.674496   -0.092673    0.000000    0.000000    0.000000
C     0.198487    1.422060   -0.121503    0.000000    0.000000    0.000000
O    -2.278352   -1.195100    0.027552    0.000000    0.000000    0.000000
O     0.157268    2.653978   -0.224886    0.000000    0.000000    0.000000
H     2.071990   -1.429182    0.165269    0.000000    0.000000    0.000000
H    -1.849786    1.206815   -0.161518    0.000000    0.000000    0.000000
H     2.348454    1.034025   -0.030636    0.000000    0.000000    0.000000
11
* Frequency(5)    0.0000
C     1.357708    0.575724   -0.019982    0.000000    0.000000    0.000000
C     1.169529   -0.796569    0.088269    0.000000    0.000000    0.000000
N     0.012816   -1.463992    0.112098    0.000000    0.000000    0.000000
C    -1.137586   -0.728374    0.019659    0.000000    0.000000    0.000000
N    -0.987337    0.674496   -0.092673    0.000000    0.000000    0.000000
C     0.198487    1.422060   -0.121503    0.000000    0.000000    0.000000
O    -2.278352   -1.195100    0.027552    0.000000    0.000000    0.000000
O     0.157268    2.653978   -0.224886    0.000000    0.000000    0.000000
H     2.071990   -1.429182    0.165269    0.000000    0.000000    0.000000
H    -1.849786    1.206815   -0.161518    0.000000    0.000000    0.000000
H     2.348454    1.034025   -0.030636    0.000000    0.000000    0.000000
11
* Frequency(5)    0.0000
C     1.357708    0.575724   -0.019982    0.000000    0.000000    0.000000
C     1.169529   -0.796569    0.088269    0.000000    0.000000    0.000000
N     0.012816   -1.463992    0.112098    0.000000    0.000000    0.000000
C    -1.137586   -0.728374    0.019659    0.000000    0.000000    0.000000
N    -0.987337    0.674496   -0.092673    0.000000    0.000000    0.000000
C     0.198487    1.422060   -0.121503    0.000000    0.000000    0.000000
O    -2.278352   -1.195100    0.027552    0.000000    0.000000    0.000000
O     0.157268    2.653978   -0.224886    0.000000    0.000000    0.000000
H     2.071990   -1.429182    0.165269    0.000000    0.000000    0.000000
H    -1.849786    1.206815   -0.161518    0.000000    0.000000    0.000000
H     2.348454    1.034025   -0.030636    0.000000    0.000000    0.000000
11
* Frequency(5)    0.0000
C     1.357708    0.575724   -0.019982    0.000000    0.000000    0.000000
C     1.169529   -0.796569    0.088269    0.000000    0.000000    0.000000
N     0.012816   -1.463992    0.112098    0.000000    0.000000    0.000000
C    -1.137586   -0.728374    0.019659    0.000000    0.000000    0.000000
N    -0.987337    0.674496   -0.092673    0.000000    0.000000    0.000000
C     0.198487    1.422060   -0.121503    0.000000    0.000000    0.000000
O    -2.278352   -1.195100    0.027552    0.000000    0.000000    0.000000
O     0.157268    2.653978   -0.224886    0.000000    0.000000    0.000000
H     2.071990   -1.429182    0.165269    0.000000    0.000000    0.000000
H    -1.849786    1.206815   -0.161518    0.000000    0.000000    0.000000
H     2.348454    1.034025   -0.030636    0.000000    0.000000    0.000000
11
* Frequency(5)    0.0000
C     1.357708    0.575724   -0.019982    0.000000    0.000000    0.000000
C     1.169529   -0.796569    0.088269    0.000000    0.000000    0.000000
N     0.012816   -1.463992    0.112098    0.000000    0.000000    0.000000
C    -1.137586   -0.728374    0.019659    0.000000    0.000000    0.000000
N    -0.987337    0.674496   -0.092673    0.000000    0.000000    0.000000
C     0.198487    1.422060   -0.121503    0.000000    0.000000    0.000000
O    -2.278352   -1.195100    0.027552    0.000000    0.000000    0.000000
O     0.157268    2.653978   -0.224886    0.000000    0.000000    0.000000
H     2.071990   -1.429182    0.165269    0.000000    0.000000    0.000000
H    -1.849786    1.206815   -0.161518    0.000000    0.000000    0.000000
H     2.348454    1.034025   -0.030636    0.000000    0.000000    0.000000
11
* Frequency(5)    0.0000
C     1.357708    0.575724   -0.019982    0.000000    0.000000    0.000000
C     1.169529   -0.796569    0.088269    0.000000    0.000000    0.000000
N     0.012816   -1.463992    0.112098    0.000000    0.000000    0.000000
C    -1.137586   -0.728374    0.019659    0.000000    0.000000    0.000000
N    -0.987337    0.674496   -0.092673    0.000000    0.000000    0.000000
C     0.198487    1.422060   -0.121503    0.000000    0.000000    0.000000
O    -2.278352   -1.195100    0.027552    0.000000    0.000000    0.000000
O     0.157268    2.653978   -0.224886    0.000000    0.000000    0.000000
H     2.071990   -1.429182    0.165269    0.000000    0.000000    0.000000
H    -1.849786    1.206815   -0.161518    0.000000    0.000000    0.000000
H     2.348454    1.034025   -0.030636    0.000000    0.000000    0.000000
11
* Frequency(5)    0.0000
C     1.357708    0.575724   -0.019982    0.000000    0.000000    0.000000
C     1.169529   -0.796569    0.088269    0.000000    0.000000    0.000000
N     0.012816   -1.463992    0.112098    0.000000    0.000000    0.000000
C    -1.137586   -0.728374    0.019659    0.000000    0.000000    0.000000
N    -0.987337    0.674496   -0.092673    0.000000    0.000000    0.000000
C     0.198487    1.422060   -0.121503    0.000000    0.000000    0.000000
O    -2.278352   -1.195100    0.027552    0.000000    0.000000    0.000000
O     0.157268    2.653978   -0.224886    0.000000    0.000000    0.000000
H     2.071990   -1.429182    0.165269    0.000000    0.000000    0.000000
H    -1.849786    1.206815   -0.161518    0.000000    0.000000    0.000000
H     2.348454    1.034025   -0.030636    0.000000    0.000000    0.000000
11
* Frequency(5)    0.0000
C     1.357708    0.575724   -0.019982    0.000000    0.000000    0.000000
C     1.169529   -0.796569    0.088269    0.000000    0.000000    0.000000
N     0.012816   -1.463992    0.112098    0.000000    0.000000    0.000000
C    -1.137586   -0.728374    0.019659    0.000000    0.000000    0.000000
N    -0.987337    0.674496   -0.092673    0.000000    0.000000    0.000000
C     0.198487    1.422060   -0.121503    0.000000    0.000000    0.000000
O    -2.278352   -1.195100    0.027552    0.000000    0.000000    0.000000
O     0.157268    2.653978   -0.224886    0.000000    0.000000    0.000000
H     2.071990   -1.429182    0.165269    0.000000    0.000000    0.000000
H    -1.849786    1.206815   -0.161518    0.000000    0.000000    0.000000
H     2.348454    1.034025   -0.030636    0.000000    0.000000    0.000000
11
* Frequency(5)    0.0000
C     1.357708    0.575724   -0.019982    0.000000    0.000000    0.000000
C     1.169529   -0.796569    0.088269    0.000000    0.000000    0.000000
N     0.012816   -1.463992    0.112098    0.000000    0.000000    0.000000
C    -1.137586   -0.728374    0.019659    0.000000    0.000000    0.000000
N    -0.987337    0.674496   -0.092673    0.000000    0.000000    0.000000
C     0.198487    1.422060   -0.121503    0.000000    0.000000    0.000000
O    -2.278352   -1.195100    0.027552    0.000000    0.000000    0.000000
O     0.157268    2.653978   -0.224886    0.000000    0.000000    0.000000
H     2.071990   -1.429182    0.165269    0.000000    0.000000    0.000000
H    -1.849786    1.206815   -0.161518    0.000000    0.000000    0.000000
H     2.348454    1.034025   -0.030636    0.000000    0.000000    0.000000
11
* Frequency(5)    0.0000
C     1.357708    0.575724   -0.019982    0.000000    0.000000    0.000000
C     1.169529   -0.796569    0.088269    0.000000    0.000000    0.000000
N     0.012816   -1.463992    0.112098    0.000000    0.000000    0.000000
C    -1.137586   -0.728374    0.019659    0.000000    0.000000    0.000000
N    -0.987337    0.674496   -0.092673    0.000000    0.000000    0.000000
C     0.198487    1.422060   -0.121503    0.000000    0.000000    0.000000
O    -2.278352   -1.195100    0.027552    0.000000    0.000000    0.000000
O     0.157268    2.653978   -0.224886    0.000000    0.000000    0.000000
H     2.071990   -1.429182    0.165269    0.000000    0.000000    0.000000
H    -1.849786    1.206815   -0.161518    0.000000    0.000000    0.000000
H     2.348454    1.034025   -0.030636    0.000000    0.000000    0.000000
