12
* (null), Energy   -1000.0000000
C     1.625816    0.316601   -0.065250    0.031111   -0.048501    0.002689
C     1.413215   -1.019528    0.041288   -0.136977   -0.007482    0.004629
N     0.151412   -1.546563    0.113379    0.112835    0.045341   -0.006145
C    -1.001718   -0.778391    0.084609    0.041696   -0.187652    0.013050
N    -0.754728    0.578612   -0.023325    0.054531    0.174551   -0.014351
C     0.489437    1.226278   -0.105125   -0.125771   -0.025473    0.005047
O    -2.121379   -1.255957    0.147970   -0.014647    0.012585   -0.000478
O     0.544888    2.445398   -0.199422   -0.003085    0.013869   -0.001000
H     2.227146   -1.747036    0.075476   -1.048489   -1.014027    0.099767
H     0.020614   -2.552189    0.190181    1.136668   -0.077533   -0.027424
H    -1.580237    1.175741   -0.048115    0.266771    0.475767   -0.045099
H     2.630238    0.734097   -0.122298   -0.135923    0.346918   -0.021798
12
* Frequency(23) 1203.0225
C     1.629351    0.311090   -0.064945    0.031111   -0.048501    0.002689
C     1.397648   -1.020379    0.041814   -0.136977   -0.007482    0.004629
N     0.164235   -1.541411    0.112681    0.112835    0.045341   -0.006145
C    -0.996979   -0.799716    0.086092    0.041696   -0.187652    0.013050
N    -0.748531    0.598449   -0.024956    0.054531    0.174551   -0.014351
C     0.475144    1.223384   -0.104551   -0.125771   -0.025473    0.005047
O    -2.123044   -1.254526    0.147916   -0.014647    0.012585   -0.000478
O     0.544537    2.446974   -0.199536   -0.003085    0.013869   -0.001000
H     2.107991   -1.862275    0.086814   -1.048489   -1.014027    0.099767
H     0.149791   -2.561000    0.187064    1.136668   -0.077533   -0.027424
H    -1.549920    1.229810   -0.053241    0.266771    0.475767   -0.045099
H     2.614791    0.773523   -0.124775   -0.135923    0.346918   -0.021798
12
* Frequency(23) 1203.0225
C     1.632504    0.306175   -0.064672    0.031111   -0.048501    0.002689
C     1.383769   -1.021137    0.042283   -0.136977   -0.007482    0.004629
N     0.175669   -1.536816    0.112058    0.112835    0.045341   -0.006145
C    -0.992754   -0.818731    0.087415    0.041696   -0.187652    0.013050
N    -0.743006    0.616136   -0.026410    0.054531    0.174551   -0.014351
C     0.462400    1.220802   -0.104040   -0.125771   -0.025473    0.005047
O    -2.124528   -1.253251    0.147867   -0.014647    0.012585   -0.000478
O     0.544225    2.448380   -0.199637   -0.003085    0.013869   -0.001000
H     2.001748   -1.965026    0.096923   -1.048489   -1.014027    0.099767
H     0.264969   -2.568857    0.184285    1.136668   -0.077533   -0.027424
H    -1.522888    1.278019   -0.057810    0.266771    0.475767   -0.045099
H     2.601018    0.808676   -0.126984   -0.135923    0.346918   -0.021798
12
* Frequency(23) 1203.0225
C     1.634931    0.302390   -0.064462    0.031111   -0.048501    0.002689
C     1.373080   -1.021721    0.042644   -0.136977   -0.007482    0.004629
N     0.184474   -1.533278    0.111578    0.112835    0.045341   -0.006145
C    -0.989500   -0.833374    0.088433    0.041696   -0.187652    0.013050
N    -0.738750    0.629757   -0.027530    0.054531    0.174551   -0.014351
C     0.452585    1.218815   -0.103646   -0.125771   -0.025473    0.005047
O    -2.125671   -1.252269    0.147830   -0.014647    0.012585   -0.000478
O     0.543984    2.449462   -0.199715   -0.003085    0.013869   -0.001000
H     1.919930   -2.044154    0.104708   -1.048489   -1.014027    0.099767
H     0.353667   -2.574907    0.182145    1.136668   -0.077533   -0.027424
H    -1.502071    1.315145   -0.061330    0.266771    0.475767   -0.045099
H     2.590411    0.835747   -0.128685   -0.135923    0.346918   -0.021798
12
* Frequency(23) 1203.0225
C     1.636371    0.300146   -0.064338    0.031111   -0.048501    0.002689
C     1.366740   -1.022067    0.042858   -0.136977   -0.007482    0.004629
N     0.189696   -1.531179    0.111294    0.112835    0.045341   -0.006145
C    -0.987570   -0.842059    0.089037    0.041696   -0.187652    0.013050
N    -0.736226    0.637836   -0.028194    0.054531    0.174551   -0.014351
C     0.446764    1.217636   -0.103412   -0.125771   -0.025473    0.005047
O    -2.126349   -1.251687    0.147808   -0.014647    0.012585   -0.000478
O     0.543841    2.450104   -0.199761   -0.003085    0.013869   -0.001000
H     1.871404   -2.091085    0.109325   -1.048489   -1.014027    0.099767
H     0.406275   -2.578495    0.180876    1.136668   -0.077533   -0.027424
H    -1.489725    1.337164   -0.063417    0.266771    0.475767   -0.045099
H     2.584120    0.851803   -0.129693   -0.135923    0.346918   -0.021798
12
* Frequency(23) 1203.0225
C     1.636667    0.299684   -0.064312    0.031111   -0.048501    0.002689
C     1.365437   -1.022138    0.042903   -0.136977   -0.007482    0.004629
N     0.190769   -1.530748    0.111235    0.112835    0.045341   -0.006145
C    -0.987174   -0.843845    0.089161    0.041696   -0.187652    0.013050
N    -0.735708    0.639496   -0.028330    0.054531    0.174551   -0.014351
C     0.445568    1.217393   -0.103364   -0.125771   -0.025473    0.005047
O    -2.126488   -1.251567    0.147803   -0.014647    0.012585   -0.000478
O     0.543812    2.450236   -0.199771   -0.003085    0.013869   -0.001000
H     1.861428   -2.100733    0.110275   -1.048489   -1.014027    0.099767
H     0.417089   -2.579233    0.180615    1.136668   -0.077533   -0.027424
H    -1.487186    1.341691   -0.063846    0.266771    0.475767   -0.045099
H     2.582827    0.855104   -0.129901   -0.135923    0.346918   -0.021798
12
* Frequency(23) 1203.0225
C     1.635787    0.301056   -0.064388    0.031111   -0.048501    0.002689
C     1.369311   -1.021927    0.042772   -0.136977   -0.007482    0.004629
N     0.187578   -1.532030    0.111409    0.112835    0.045341   -0.006145
C    -0.988353   -0.838537    0.088792    0.041696   -0.187652    0.013050
N    -0.737250    0.634559   -0.027924    0.054531    0.174551   -0.014351
C     0.449125    1.218114   -0.103507   -0.125771   -0.025473    0.005047
O    -2.126074   -1.251923    0.147817   -0.014647    0.012585   -0.000478
O     0.543899    2.449843   -0.199743   -0.003085    0.013869   -0.001000
H     1.891084   -2.072053    0.107453   -1.048489   -1.014027    0.099767
H     0.384940   -2.577040    0.181391    1.136668   -0.077533   -0.027424
H    -1.494732    1.328235   -0.062570    0.266771    0.475767   -0.045099
H     2.586671    0.845292   -0.129284   -0.135923    0.346918   -0.021798
12
* Frequency(23) 1203.0225
C     1.633827    0.304112   -0.064558    0.031111   -0.048501    0.002689
C     1.377943   -1.021455    0.042480   -0.136977   -0.007482    0.004629
N     0.180467   -1.534888    0.111797    0.112835    0.045341   -0.006145
C    -0.990981   -0.826712    0.087970    0.041696   -0.187652    0.013050
N    -0.740686    0.623560   -0.027020    0.054531    0.174551   -0.014351
C     0.457051    1.219719   -0.103825   -0.125771   -0.025473    0.005047
O    -2.125151   -1.252716    0.147847   -0.014647    0.012585   -0.000478
O     0.544093    2.448969   -0.199680   -0.003085    0.013869   -0.001000
H     1.957157   -2.008152    0.101166   -1.048489   -1.014027    0.099767
H     0.313310   -2.572154    0.183119    1.136668   -0.077533   -0.027424
H    -1.511543    1.298253   -0.059728    0.266771    0.475767   -0.045099
H     2.595237    0.823430   -0.127911   -0.135923    0.346918   -0.021798
12
* Frequency(23) 1203.0225
C     1.630998    0.308522   -0.064802    0.031111   -0.048501    0.002689
C     1.390397   -1.020775    0.042059   -0.136977   -0.007482    0.004629
N     0.170208   -1.539010    0.112355    0.112835    0.045341   -0.006145
C    -0.994772   -0.809650    0.086783    0.041696   -0.187652    0.013050
N    -0.745644    0.607689   -0.025715    0.054531    0.174551   -0.014351
C     0.468486    1.222035   -0.104284   -0.125771   -0.025473    0.005047
O    -2.123819   -1.253860    0.147891   -0.014647    0.012585   -0.000478
O     0.544374    2.447708   -0.199589   -0.003085    0.013869   -0.001000
H     2.052487   -1.915954    0.092095   -1.048489   -1.014027    0.099767
H     0.209962   -2.565105    0.185613    1.136668   -0.077533   -0.027424
H    -1.535798    1.254995   -0.055628    0.266771    0.475767   -0.045099
H     2.607595    0.791887   -0.125929   -0.135923    0.346918   -0.021798
12
* Frequency(23) 1203.0225
C     1.627608    0.313807   -0.065095    0.031111   -0.048501    0.002689
C     1.405324   -1.019959    0.041555   -0.136977   -0.007482    0.004629
N     0.157912   -1.543951    0.113025    0.112835    0.045341   -0.006145
C    -0.999316   -0.789201    0.085361    0.041696   -0.187652    0.013050
N    -0.751587    0.588668   -0.024151    0.054531    0.174551   -0.014351
C     0.482192    1.224811   -0.104834   -0.125771   -0.025473    0.005047
O    -2.122223   -1.255232    0.147943   -0.014647    0.012585   -0.000478
O     0.544710    2.446197   -0.199480   -0.003085    0.013869   -0.001000
H     2.166745   -1.805452    0.081223   -1.048489   -1.014027    0.099767
H     0.086096   -2.556656    0.188601    1.136668   -0.077533   -0.027424
H    -1.564869    1.203149   -0.050713    0.266771    0.475767   -0.045099
H     2.622407    0.754082   -0.123553   -0.135923    0.346918   -0.021798
12
* Frequency(23) 1203.0225
C     1.624023    0.319396   -0.065405    0.031111   -0.048501    0.002689
C     1.421106   -1.019097    0.041021   -0.136977   -0.007482    0.004629
N     0.144912   -1.549175    0.113733    0.112835    0.045341   -0.006145
C    -1.004120   -0.767580    0.083858    0.041696   -0.187652    0.013050
N    -0.757870    0.568557   -0.022498    0.054531    0.174551   -0.014351
C     0.496683    1.227746   -0.105416   -0.125771   -0.025473    0.005047
O    -2.120536   -1.256682    0.147998   -0.014647    0.012585   -0.000478
O     0.545066    2.444599   -0.199364   -0.003085    0.013869   -0.001000
H     2.287548   -1.688620    0.069728   -1.048489   -1.014027    0.099767
H    -0.044867   -2.547723    0.191761    1.136668   -0.077533   -0.027424
H    -1.595606    1.148333   -0.045517    0.266771    0.475767   -0.045099
H     2.638068    0.714112   -0.121042   -0.135923    0.346918   -0.021798
12
* Frequency(23) 1203.0225
C     1.620633    0.324681   -0.065698    0.031111   -0.048501    0.002689
C     1.436033   -1.018282    0.040517   -0.136977   -0.007482    0.004629
N     0.132616   -1.554116    0.114403    0.112835    0.045341   -0.006145
C    -1.008664   -0.747131    0.082435    0.041696   -0.187652    0.013050
N    -0.763812    0.549535   -0.020934    0.054531    0.174551   -0.014351
C     0.510388    1.230522   -0.105966   -0.125771   -0.025473    0.005047
O    -2.118939   -1.258053    0.148050   -0.014647    0.012585   -0.000478
O     0.545402    2.443088   -0.199255   -0.003085    0.013869   -0.001000
H     2.401805   -1.578118    0.058856   -1.048489   -1.014027    0.099767
H    -0.168734   -2.539274    0.194749    1.136668   -0.077533   -0.027424
H    -1.624677    1.096487   -0.040603    0.266771    0.475767   -0.045099
H     2.652880    0.676307   -0.118666   -0.135923    0.346918   -0.021798
12
* Frequency(23) 1203.0225
C     1.617804    0.329091   -0.065942    0.031111   -0.048501    0.002689
C     1.448487   -1.017602    0.040096   -0.136977   -0.007482    0.004629
N     0.122357   -1.558239    0.114961    0.112835    0.045341   -0.006145
C    -1.012455   -0.730070    0.081249    0.041696   -0.187652    0.013050
N    -0.768770    0.533665   -0.019629    0.054531    0.174551   -0.014351
C     0.521824    1.232838   -0.106425   -0.125771   -0.025473    0.005047
O    -2.117608   -1.259198    0.148093   -0.014647    0.012585   -0.000478
O     0.545682    2.441827   -0.199164   -0.003085    0.013869   -0.001000
H     2.497136   -1.485921    0.049785   -1.048489   -1.014027    0.099767
H    -0.272082   -2.532224    0.197243    1.136668   -0.077533   -0.027424
H    -1.648932    1.053230   -0.036502    0.266771    0.475767   -0.045099
H     2.665238    0.644765   -0.116685   -0.135923    0.346918   -0.021798
12
* Frequency(23) 1203.0225
C     1.615844    0.332147   -0.066112    0.031111   -0.048501    0.002689
C     1.457119   -1.017130    0.039804   -0.136977   -0.007482    0.004629
N     0.115246   -1.561096    0.115349    0.112835    0.045341   -0.006145
C    -1.015082   -0.718244    0.080426    0.041696   -0.187652    0.013050
N    -0.772207    0.522665   -0.018725    0.054531    0.174551   -0.014351
C     0.529749    1.234443   -0.106743   -0.125771   -0.025473    0.005047
O    -2.116685   -1.259991    0.148123   -0.014647    0.012585   -0.000478
O     0.545877    2.440953   -0.199101   -0.003085    0.013869   -0.001000
H     2.563209   -1.422020    0.043498   -1.048489   -1.014027    0.099767
H    -0.343711   -2.527338    0.198971    1.136668   -0.077533   -0.027424
H    -1.665743    1.023248   -0.033660    0.266771    0.475767   -0.045099
H     2.673804    0.622903   -0.115311   -0.135923    0.346918   -0.021798
12
* Frequency(23) 1203.0225
C     1.614964    0.333519   -0.066188    0.031111   -0.048501    0.002689
C     1.460993   -1.016918    0.039673   -0.136977   -0.007482    0.004629
N     0.112055   -1.562379    0.115523    0.112835    0.045341   -0.006145
C    -1.016262   -0.712937    0.080057    0.041696   -0.187652    0.013050
N    -0.773749    0.517728   -0.018319    0.054531    0.174551   -0.014351
C     0.533307    1.235163   -0.106885   -0.125771   -0.025473    0.005047
O    -2.116270   -1.260347    0.148137   -0.014647    0.012585   -0.000478
O     0.545964    2.440560   -0.199073   -0.003085    0.013869   -0.001000
H     2.592864   -1.393339    0.040676   -1.048489   -1.014027    0.099767
H    -0.375861   -2.525145    0.199747    1.136668   -0.077533   -0.027424
H    -1.673288    1.009792   -0.032385    0.266771    0.475767   -0.045099
H     2.677648    0.613091   -0.114694   -0.135923    0.346918   -0.021798
12
* Frequency(23) 1203.0225
C     1.615260    0.333057   -0.066162    0.031111   -0.048501    0.002689
C     1.459690   -1.016990    0.039717   -0.136977   -0.007482    0.004629
N     0.113128   -1.561947    0.115464    0.112835    0.045341   -0.006145
C    -1.015865   -0.714722    0.080181    0.041696   -0.187652    0.013050
N    -0.773230    0.519389   -0.018455    0.054531    0.174551   -0.014351
C     0.532110    1.234921   -0.106837   -0.125771   -0.025473    0.005047
O    -2.116410   -1.260227    0.148132   -0.014647    0.012585   -0.000478
O     0.545935    2.440692   -0.199083   -0.003085    0.013869   -0.001000
H     2.582888   -1.402987    0.041626   -1.048489   -1.014027    0.099767
H    -0.365046   -2.525883    0.199486    1.136668   -0.077533   -0.027424
H    -1.670750    1.014318   -0.032814    0.266771    0.475767   -0.045099
H     2.676355    0.616391   -0.114902   -0.135923    0.346918   -0.021798
12
* Frequency(23) 1203.0225
C     1.616700    0.330813   -0.066038    0.031111   -0.048501    0.002689
C     1.453350   -1.017336    0.039932   -0.136977   -0.007482    0.004629
N     0.118351   -1.559849    0.115180    0.112835    0.045341   -0.006145
C    -1.013935   -0.723407    0.080785    0.041696   -0.187652    0.013050
N    -0.770706    0.527467   -0.019120    0.054531    0.174551   -0.014351
C     0.526289    1.233742   -0.106604   -0.125771   -0.025473    0.005047
O    -2.117088   -1.259644    0.148110   -0.014647    0.012585   -0.000478
O     0.545792    2.441334   -0.199129   -0.003085    0.013869   -0.001000
H     2.534362   -1.449918    0.046243   -1.048489   -1.014027    0.099767
H    -0.312439   -2.529471    0.198216    1.136668   -0.077533   -0.027424
H    -1.658404    1.036338   -0.034901    0.266771    0.475767   -0.045099
H     2.670064    0.632447   -0.115911   -0.135923    0.346918   -0.021798
12
* Frequency(23) 1203.0225
C     1.619128    0.327028   -0.065828    0.031111   -0.048501    0.002689
C     1.442662   -1.017920    0.040293   -0.136977   -0.007482    0.004629
N     0.127155   -1.556311    0.114700    0.112835    0.045341   -0.006145
C    -1.010681   -0.738050    0.081804    0.041696   -0.187652    0.013050
N    -0.766451    0.541088   -0.020239    0.054531    0.174551   -0.014351
C     0.516475    1.231754   -0.106210   -0.125771   -0.025473    0.005047
O    -2.118231   -1.258662    0.148073   -0.014647    0.012585   -0.000478
O     0.545551    2.442416   -0.199207   -0.003085    0.013869   -0.001000
H     2.452545   -1.529046    0.054028   -1.048489   -1.014027    0.099767
H    -0.223740   -2.535522    0.196076    1.136668   -0.077533   -0.027424
H    -1.637586    1.073464   -0.038420    0.266771    0.475767   -0.045099
H     2.659458    0.659519   -0.117612   -0.135923    0.346918   -0.021798
12
* Frequency(23) 1203.0225
C     1.622280    0.322113   -0.065556    0.031111   -0.048501    0.002689
C     1.428782   -1.018678    0.040762   -0.136977   -0.007482    0.004629
N     0.138589   -1.551716    0.114077    0.112835    0.045341   -0.006145
C    -1.006456   -0.757065    0.083126    0.041696   -0.187652    0.013050
N    -0.760926    0.558775   -0.021694    0.054531    0.174551   -0.014351
C     0.503730    1.229173   -0.105698   -0.125771   -0.025473    0.005047
O    -2.119715   -1.257387    0.148025   -0.014647    0.012585   -0.000478
O     0.545238    2.443822   -0.199308   -0.003085    0.013869   -0.001000
H     2.346302   -1.631797    0.064138   -1.048489   -1.014027    0.099767
H    -0.108562   -2.543378    0.193297    1.136668   -0.077533   -0.027424
H    -1.610555    1.121673   -0.042990    0.266771    0.475767   -0.045099
H     2.645685    0.694672   -0.119820   -0.135923    0.346918   -0.021798
12
* Frequency(23) 1203.0225
C     1.625816    0.316601   -0.065250    0.031111   -0.048501    0.002689
C     1.413215   -1.019528    0.041288   -0.136977   -0.007482    0.004629
N     0.151412   -1.546563    0.113379    0.112835    0.045341   -0.006145
C    -1.001718   -0.778391    0.084609    0.041696   -0.187652    0.013050
N    -0.754728    0.578612   -0.023325    0.054531    0.174551   -0.014351
C     0.489437    1.226278   -0.105125   -0.125771   -0.025473    0.005047
O    -2.121379   -1.255957    0.147970   -0.014647    0.012585   -0.000478
O     0.544888    2.445398   -0.199422   -0.003085    0.013869   -0.001000
H     2.227146   -1.747036    0.075476   -1.048489   -1.014027    0.099767
H     0.020614   -2.552189    0.190181    1.136668   -0.077533   -0.027424
H    -1.580237    1.175741   -0.048115    0.266771    0.475767   -0.045099
H     2.630238    0.734097   -0.122298   -0.135923    0.346918   -0.021798
