12
* (null), Energy   -1000.0000000
C     1.321514    0.518496   -0.072777    0.000802    0.002665   -0.000211
C     1.109175   -0.817930    0.032797    0.003293    0.001007   -0.000152
N    -0.152373   -1.344381    0.103578   -0.018647   -0.147828    0.012070
C    -1.303319   -0.575774    0.076278   -0.001128    0.001430   -0.000067
N    -1.058010    0.780216   -0.032013   -0.003270    0.003545   -0.000180
C     0.185580    1.426809   -0.112240    0.000712   -0.001459    0.000094
O    -2.424404   -1.053547    0.141169   -0.000516   -0.000314    0.000035
O     0.240353    2.647240   -0.204710   -0.000052    0.000897   -0.000068
H     1.922616   -1.545424    0.067591   -0.010262    0.006936   -0.000305
H    -0.283402   -2.349496    0.186263    0.242374    1.972394   -0.161496
H    -1.883441    1.377385   -0.056304    0.039443   -0.026950    0.001047
H     2.325711    0.936406   -0.129663   -0.001836   -0.000118    0.000051
12
* Frequency(35) 3598.0833
C     1.321605    0.518799   -0.072801    0.000802    0.002665   -0.000211
C     1.109550   -0.817816    0.032780    0.003293    0.001007   -0.000152
N    -0.154493   -1.361181    0.104950   -0.018647   -0.147828    0.012070
C    -1.303447   -0.575611    0.076271   -0.001128    0.001430   -0.000067
N    -1.058382    0.780619   -0.032033   -0.003270    0.003545   -0.000180
C     0.185661    1.426643   -0.112229    0.000712   -0.001459    0.000094
O    -2.424463   -1.053582    0.141173   -0.000516   -0.000314    0.000035
O     0.240348    2.647342   -0.204718   -0.000052    0.000897   -0.000068
H     1.921450   -1.544636    0.067556   -0.010262    0.006936   -0.000305
H    -0.255857   -2.125344    0.167910    0.242374    1.972394   -0.161496
H    -1.878958    1.374322   -0.056185    0.039443   -0.026950    0.001047
H     2.325502    0.936393   -0.129657   -0.001836   -0.000118    0.000051
12
* Frequency(35) 3598.0833
C     1.321686    0.519069   -0.072822    0.000802    0.002665   -0.000211
C     1.109883   -0.817714    0.032764    0.003293    0.001007   -0.000152
N    -0.156382   -1.376160    0.106173   -0.018647   -0.147828    0.012070
C    -1.303562   -0.575467    0.076264   -0.001128    0.001430   -0.000067
N    -1.058713    0.780979   -0.032051   -0.003270    0.003545   -0.000180
C     0.185733    1.426495   -0.112219    0.000712   -0.001459    0.000094
O    -2.424515   -1.053614    0.141176   -0.000516   -0.000314    0.000035
O     0.240342    2.647433   -0.204725   -0.000052    0.000897   -0.000068
H     1.920410   -1.543933    0.067525   -0.010262    0.006936   -0.000305
H    -0.231297   -1.925482    0.151546    0.242374    1.972394   -0.161496
H    -1.874962    1.371592   -0.056079    0.039443   -0.026950    0.001047
H     2.325316    0.936381   -0.129652   -0.001836   -0.000118    0.000051
12
* Frequency(35) 3598.0833
C     1.321749    0.519277   -0.072839    0.000802    0.002665   -0.000211
C     1.110140   -0.817635    0.032753    0.003293    0.001007   -0.000152
N    -0.157837   -1.387696    0.107115   -0.018647   -0.147828    0.012070
C    -1.303649   -0.575355    0.076259   -0.001128    0.001430   -0.000067
N    -1.058968    0.781255   -0.032065   -0.003270    0.003545   -0.000180
C     0.185788    1.426381   -0.112212    0.000712   -0.001459    0.000094
O    -2.424556   -1.053639    0.141179   -0.000516   -0.000314    0.000035
O     0.240338    2.647503   -0.204730   -0.000052    0.000897   -0.000068
H     1.919609   -1.543392    0.067502   -0.010262    0.006936   -0.000305
H    -0.212384   -1.771569    0.138943    0.242374    1.972394   -0.161496
H    -1.871884    1.369489   -0.055998    0.039443   -0.026950    0.001047
H     2.325173    0.936372   -0.129648   -0.001836   -0.000118    0.000051
12
* Frequency(35) 3598.0833
C     1.321786    0.519401   -0.072848    0.000802    0.002665   -0.000211
C     1.110293   -0.817588    0.032745    0.003293    0.001007   -0.000152
N    -0.158700   -1.394538    0.107674   -0.018647   -0.147828    0.012070
C    -1.303702   -0.575289    0.076256   -0.001128    0.001430   -0.000067
N    -1.059120    0.781419   -0.032074   -0.003270    0.003545   -0.000180
C     0.185821    1.426313   -0.112208    0.000712   -0.001459    0.000094
O    -2.424579   -1.053653    0.141181   -0.000516   -0.000314    0.000035
O     0.240336    2.647544   -0.204733   -0.000052    0.000897   -0.000068
H     1.919134   -1.543071    0.067488   -0.010262    0.006936   -0.000305
H    -0.201166   -1.680283    0.131469    0.242374    1.972394   -0.161496
H    -1.870058    1.368241   -0.055949    0.039443   -0.026950    0.001047
H     2.325088    0.936366   -0.129646   -0.001836   -0.000118    0.000051
12
* Frequency(35) 3598.0833
C     1.321794    0.519426   -0.072850    0.000802    0.002665   -0.000211
C     1.110324   -0.817579    0.032744    0.003293    0.001007   -0.000152
N    -0.158878   -1.395944    0.107789   -0.018647   -0.147828    0.012070
C    -1.303712   -0.575275    0.076255   -0.001128    0.001430   -0.000067
N    -1.059151    0.781453   -0.032075   -0.003270    0.003545   -0.000180
C     0.185828    1.426299   -0.112207    0.000712   -0.001459    0.000094
O    -2.424584   -1.053656    0.141181   -0.000516   -0.000314    0.000035
O     0.240335    2.647553   -0.204734   -0.000052    0.000897   -0.000068
H     1.919037   -1.543005    0.067485   -0.010262    0.006936   -0.000305
H    -0.198860   -1.661517    0.129933    0.242374    1.972394   -0.161496
H    -1.869683    1.367985   -0.055939    0.039443   -0.026950    0.001047
H     2.325070    0.936365   -0.129645   -0.001836   -0.000118    0.000051
12
* Frequency(35) 3598.0833
C     1.321771    0.519351   -0.072844    0.000802    0.002665   -0.000211
C     1.110231   -0.817607    0.032748    0.003293    0.001007   -0.000152
N    -0.158350   -1.391763    0.107447   -0.018647   -0.147828    0.012070
C    -1.303681   -0.575316    0.076257   -0.001128    0.001430   -0.000067
N    -1.059058    0.781353   -0.032070   -0.003270    0.003545   -0.000180
C     0.185808    1.426341   -0.112210    0.000712   -0.001459    0.000094
O    -2.424570   -1.053647    0.141180   -0.000516   -0.000314    0.000035
O     0.240337    2.647527   -0.204732   -0.000052    0.000897   -0.000068
H     1.919327   -1.543201    0.067493   -0.010262    0.006936   -0.000305
H    -0.205716   -1.717304    0.134500    0.242374    1.972394   -0.161496
H    -1.870799    1.368747   -0.055969    0.039443   -0.026950    0.001047
H     2.325122    0.936368   -0.129647   -0.001836   -0.000118    0.000051
12
* Frequency(35) 3598.0833
C     1.321720    0.519183   -0.072831    0.000802    0.002665   -0.000211
C     1.110023   -0.817671    0.032758    0.003293    0.001007   -0.000152
N    -0.157175   -1.382447    0.106686   -0.018647   -0.147828    0.012070
C    -1.303609   -0.575406    0.076261   -0.001128    0.001430   -0.000067
N    -1.058852    0.781129   -0.032059   -0.003270    0.003545   -0.000180
C     0.185763    1.426433   -0.112215    0.000712   -0.001459    0.000094
O    -2.424537   -1.053628    0.141178   -0.000516   -0.000314    0.000035
O     0.240340    2.647471   -0.204728   -0.000052    0.000897   -0.000068
H     1.919974   -1.543638    0.067513   -0.010262    0.006936   -0.000305
H    -0.220989   -1.841598    0.144677    0.242374    1.972394   -0.161496
H    -1.873284    1.370446   -0.056035    0.039443   -0.026950    0.001047
H     2.325238    0.936376   -0.129650   -0.001836   -0.000118    0.000051
12
* Frequency(35) 3598.0833
C     1.321647    0.518940   -0.072812    0.000802    0.002665   -0.000211
C     1.109724   -0.817762    0.032772    0.003293    0.001007   -0.000152
N    -0.155480   -1.369007    0.105589   -0.018647   -0.147828    0.012070
C    -1.303507   -0.575536    0.076267   -0.001128    0.001430   -0.000067
N    -1.058555    0.780807   -0.032043   -0.003270    0.003545   -0.000180
C     0.185698    1.426565   -0.112224    0.000712   -0.001459    0.000094
O    -2.424490   -1.053599    0.141175   -0.000516   -0.000314    0.000035
O     0.240345    2.647389   -0.204721   -0.000052    0.000897   -0.000068
H     1.920907   -1.544269    0.067540   -0.010262    0.006936   -0.000305
H    -0.243026   -2.020932    0.159361    0.242374    1.972394   -0.161496
H    -1.876870    1.372896   -0.056130    0.039443   -0.026950    0.001047
H     2.325405    0.936387   -0.129655   -0.001836   -0.000118    0.000051
12
* Frequency(35) 3598.0833
C     1.321560    0.518650   -0.072789    0.000802    0.002665   -0.000211
C     1.109365   -0.817872    0.032788    0.003293    0.001007   -0.000152
N    -0.153448   -1.352897    0.104274   -0.018647   -0.147828    0.012070
C    -1.303384   -0.575692    0.076274   -0.001128    0.001430   -0.000067
N    -1.058199    0.780421   -0.032023   -0.003270    0.003545   -0.000180
C     0.185621    1.426724   -0.112234    0.000712   -0.001459    0.000094
O    -2.424434   -1.053565    0.141171   -0.000516   -0.000314    0.000035
O     0.240350    2.647292   -0.204714   -0.000052    0.000897   -0.000068
H     1.922025   -1.545024    0.067573   -0.010262    0.006936   -0.000305
H    -0.269439   -2.235871    0.176960    0.242374    1.972394   -0.161496
H    -1.881169    1.375833   -0.056244    0.039443   -0.026950    0.001047
H     2.325605    0.936399   -0.129660   -0.001836   -0.000118    0.000051
12
* Frequency(35) 3598.0833
C     1.321468    0.518343   -0.072765    0.000802    0.002665   -0.000211
C     1.108986   -0.817988    0.032806    0.003293    0.001007   -0.000152
N    -0.151299   -1.335865    0.102883   -0.018647   -0.147828    0.012070
C    -1.303254   -0.575856    0.076282   -0.001128    0.001430   -0.000067
N    -1.057822    0.780012   -0.032002   -0.003270    0.003545   -0.000180
C     0.185539    1.426893   -0.112245    0.000712   -0.001459    0.000094
O    -2.424375   -1.053529    0.141167   -0.000516   -0.000314    0.000035
O     0.240356    2.647188   -0.204706   -0.000052    0.000897   -0.000068
H     1.923207   -1.545824    0.067609   -0.010262    0.006936   -0.000305
H    -0.297364   -2.463122    0.195567    0.242374    1.972394   -0.161496
H    -1.885713    1.378938   -0.056365    0.039443   -0.026950    0.001047
H     2.325817    0.936413   -0.129666   -0.001836   -0.000118    0.000051
12
* Frequency(35) 3598.0833
C     1.321380    0.518052   -0.072742    0.000802    0.002665   -0.000211
C     1.108627   -0.818098    0.032823    0.003293    0.001007   -0.000152
N    -0.149267   -1.319756    0.101568   -0.018647   -0.147828    0.012070
C    -1.303131   -0.576012    0.076289   -0.001128    0.001430   -0.000067
N    -1.057465    0.779626   -0.031983   -0.003270    0.003545   -0.000180
C     0.185461    1.427052   -0.112255    0.000712   -0.001459    0.000094
O    -2.424318   -1.053494    0.141163   -0.000516   -0.000314    0.000035
O     0.240362    2.647090   -0.204699   -0.000052    0.000897   -0.000068
H     1.924326   -1.546579    0.067642   -0.010262    0.006936   -0.000305
H    -0.323777   -2.678061    0.213166    0.242374    1.972394   -0.161496
H    -1.890011    1.381874   -0.056479    0.039443   -0.026950    0.001047
H     2.326017    0.936426   -0.129672   -0.001836   -0.000118    0.000051
12
* Frequency(35) 3598.0833
C     1.321307    0.517810   -0.072722    0.000802    0.002665   -0.000211
C     1.108327   -0.818189    0.032836    0.003293    0.001007   -0.000152
N    -0.147572   -1.306315    0.100470   -0.018647   -0.147828    0.012070
C    -1.303029   -0.576142    0.076295   -0.001128    0.001430   -0.000067
N    -1.057168    0.779303   -0.031966   -0.003270    0.003545   -0.000180
C     0.185396    1.427184   -0.112264    0.000712   -0.001459    0.000094
O    -2.424272   -1.053466    0.141160   -0.000516   -0.000314    0.000035
O     0.240367    2.647009   -0.204693   -0.000052    0.000897   -0.000068
H     1.925259   -1.547210    0.067669   -0.010262    0.006936   -0.000305
H    -0.345814   -2.857394    0.227849    0.242374    1.972394   -0.161496
H    -1.893597    1.384325   -0.056574    0.039443   -0.026950    0.001047
H     2.326184    0.936437   -0.129676   -0.001836   -0.000118    0.000051
12
* Frequency(35) 3598.0833
C     1.321257    0.517642   -0.072709    0.000802    0.002665   -0.000211
C     1.108120   -0.818253    0.032846    0.003293    0.001007   -0.000152
N    -0.146397   -1.296999    0.099710   -0.018647   -0.147828    0.012070
C    -1.302958   -0.576232    0.076300   -0.001128    0.001430   -0.000067
N    -1.056962    0.779080   -0.031955   -0.003270    0.003545   -0.000180
C     0.185352    1.427276   -0.112270    0.000712   -0.001459    0.000094
O    -2.424239   -1.053446    0.141157   -0.000516   -0.000314    0.000035
O     0.240370    2.646952   -0.204689   -0.000052    0.000897   -0.000068
H     1.925905   -1.547647    0.067689   -0.010262    0.006936   -0.000305
H    -0.361088   -2.981689    0.238026    0.242374    1.972394   -0.161496
H    -1.896083    1.386023   -0.056640    0.039443   -0.026950    0.001047
H     2.326299    0.936444   -0.129680   -0.001836   -0.000118    0.000051
12
* Frequency(35) 3598.0833
C     1.321234    0.517567   -0.072703    0.000802    0.002665   -0.000211
C     1.108027   -0.818281    0.032850    0.003293    0.001007   -0.000152
N    -0.145869   -1.292818    0.099368   -0.018647   -0.147828    0.012070
C    -1.302926   -0.576273    0.076302   -0.001128    0.001430   -0.000067
N    -1.056870    0.778980   -0.031950   -0.003270    0.003545   -0.000180
C     0.185331    1.427318   -0.112272    0.000712   -0.001459    0.000094
O    -2.424224   -1.053437    0.141156   -0.000516   -0.000314    0.000035
O     0.240372    2.646927   -0.204687   -0.000052    0.000897   -0.000068
H     1.926196   -1.547843    0.067697   -0.010262    0.006936   -0.000305
H    -0.367943   -3.037476    0.242594    0.242374    1.972394   -0.161496
H    -1.897199    1.386785   -0.056669    0.039443   -0.026950    0.001047
H     2.326351    0.936447   -0.129681   -0.001836   -0.000118    0.000051
12
* Frequency(35) 3598.0833
C     1.321242    0.517592   -0.072705    0.000802    0.002665   -0.000211
C     1.108058   -0.818272    0.032849    0.003293    0.001007   -0.000152
N    -0.146047   -1.294225    0.099483   -0.018647   -0.147828    0.012070
C    -1.302937   -0.576259    0.076301   -0.001128    0.001430   -0.000067
N    -1.056901    0.779013   -0.031952   -0.003270    0.003545   -0.000180
C     0.185338    1.427304   -0.112271    0.000712   -0.001459    0.000094
O    -2.424229   -1.053440    0.141157   -0.000516   -0.000314    0.000035
O     0.240371    2.646936   -0.204687   -0.000052    0.000897   -0.000068
H     1.926098   -1.547777    0.067694   -0.010262    0.006936   -0.000305
H    -0.365637   -3.018710    0.241057    0.242374    1.972394   -0.161496
H    -1.896823    1.386529   -0.056660    0.039443   -0.026950    0.001047
H     2.326334    0.936446   -0.129681   -0.001836   -0.000118    0.000051
12
* Frequency(35) 3598.0833
C     1.321279    0.517715   -0.072715    0.000802    0.002665   -0.000211
C     1.108210   -0.818225    0.032842    0.003293    0.001007   -0.000152
N    -0.146910   -1.301066    0.100042   -0.018647   -0.147828    0.012070
C    -1.302989   -0.576193    0.076298   -0.001128    0.001430   -0.000067
N    -1.057052    0.779178   -0.031960   -0.003270    0.003545   -0.000180
C     0.185371    1.427236   -0.112267    0.000712   -0.001459    0.000094
O    -2.424253   -1.053455    0.141158   -0.000516   -0.000314    0.000035
O     0.240369    2.646977   -0.204690   -0.000052    0.000897   -0.000068
H     1.925623   -1.547456    0.067680   -0.010262    0.006936   -0.000305
H    -0.354419   -2.927424    0.233583    0.242374    1.972394   -0.161496
H    -1.894998    1.385282   -0.056611    0.039443   -0.026950    0.001047
H     2.326249    0.936441   -0.129678   -0.001836   -0.000118    0.000051
12
* Frequency(35) 3598.0833
C     1.321341    0.517923   -0.072731    0.000802    0.002665   -0.000211
C     1.108467   -0.818147    0.032830    0.003293    0.001007   -0.000152
N    -0.148365   -1.312602    0.100984   -0.018647   -0.147828    0.012070
C    -1.303077   -0.576081    0.076293   -0.001128    0.001430   -0.000067
N    -1.057307    0.779454   -0.031974   -0.003270    0.003545   -0.000180
C     0.185427    1.427122   -0.112260    0.000712   -0.001459    0.000094
O    -2.424293   -1.053479    0.141161   -0.000516   -0.000314    0.000035
O     0.240365    2.647047   -0.204696   -0.000052    0.000897   -0.000068
H     1.924822   -1.546915    0.067656   -0.010262    0.006936   -0.000305
H    -0.335506   -2.773511    0.220981    0.242374    1.972394   -0.161496
H    -1.891920    1.383179   -0.056529    0.039443   -0.026950    0.001047
H     2.326105    0.936432   -0.129674   -0.001836   -0.000118    0.000051
12
* Frequency(35) 3598.0833
C     1.321423    0.518193   -0.072753    0.000802    0.002665   -0.000211
C     1.108801   -0.818045    0.032814    0.003293    0.001007   -0.000152
N    -0.150254   -1.327581    0.102207   -0.018647   -0.147828    0.012070
C    -1.303191   -0.575937    0.076286   -0.001128    0.001430   -0.000067
N    -1.057639    0.779813   -0.031992   -0.003270    0.003545   -0.000180
C     0.185499    1.426974   -0.112250    0.000712   -0.001459    0.000094
O    -2.424346   -1.053511    0.141165   -0.000516   -0.000314    0.000035
O     0.240359    2.647138   -0.204703   -0.000052    0.000897   -0.000068
H     1.923782   -1.546212    0.067626   -0.010262    0.006936   -0.000305
H    -0.310946   -2.573649    0.204617    0.242374    1.972394   -0.161496
H    -1.887923    1.380448   -0.056423    0.039443   -0.026950    0.001047
H     2.325919    0.936420   -0.129669   -0.001836   -0.000118    0.000051
12
* Frequency(35) 3598.0833
C     1.321514    0.518496   -0.072777    0.000802    0.002665   -0.000211
C     1.109175   -0.817930    0.032797    0.003293    0.001007   -0.000152
N    -0.152373   -1.344381    0.103578   -0.018647   -0.147828    0.012070
C    -1.303319   -0.575774    0.076278   -0.001128    0.001430   -0.000067
N    -1.058010    0.780216   -0.032013   -0.003270    0.003545   -0.000180
C     0.185580    1.426809   -0.112240    0.000712   -0.001459    0.000094
O    -2.424404   -1.053547    0.141169   -0.000516   -0.000314    0.000035
O     0.240353    2.647240   -0.204710   -0.000052    0.000897   -0.000068
H     1.922616   -1.545424    0.067591   -0.010262    0.006936   -0.000305
H    -0.283402   -2.349496    0.186263    0.242374    1.972394   -0.161496
H    -1.883441    1.377385   -0.056304    0.039443   -0.026950    0.001047
H     2.325711    0.936406   -0.129663   -0.001836   -0.000118    0.000051
