12
* (null), Energy   -1000.0000000
C     1.321514    0.518496   -0.072777    0.001494    0.002764    0.048321
C     1.109175   -0.817930    0.032797   -0.005741   -0.021310   -0.269907
N    -0.152373   -1.344381    0.103578    0.001098    0.002621    0.038948
C    -1.303319   -0.575774    0.076278    0.007046    0.021277    0.279854
N    -1.058010    0.780216   -0.032013    0.000939    0.006047    0.065946
C     0.185580    1.426809   -0.112240   -0.010432   -0.030007   -0.407662
O    -2.424404   -1.053547    0.141169   -0.002563   -0.007471   -0.092937
O     0.240353    2.647240   -0.204710    0.002422    0.008444    0.105116
H     1.922616   -1.545424    0.067591    0.011525    0.030761    0.421342
H    -0.283402   -2.349496    0.186263    0.010565    0.030554    0.394443
H    -1.883441    1.377385   -0.056304   -0.003624   -0.007495   -0.115432
H     2.325711    0.936406   -0.129663    0.046413    0.135312    1.812034
12
* Frequency(15)  731.2490
C     1.321684    0.518810   -0.067285    0.001494    0.002764    0.048321
C     1.108523   -0.820352    0.002124   -0.005741   -0.021310   -0.269907
N    -0.152249   -1.344083    0.108005    0.001098    0.002621    0.038948
C    -1.302518   -0.573356    0.108082    0.007046    0.021277    0.279854
N    -1.057903    0.780904   -0.024518    0.000939    0.006047    0.065946
C     0.184394    1.423398   -0.158568   -0.010432   -0.030007   -0.407662
O    -2.424696   -1.054396    0.130607   -0.002563   -0.007471   -0.092937
O     0.240629    2.648200   -0.192764    0.002422    0.008444    0.105116
H     1.923926   -1.541928    0.115474    0.011525    0.030761    0.421342
H    -0.282201   -2.346024    0.231090    0.010565    0.030554    0.394443
H    -1.883853    1.376533   -0.069423   -0.003624   -0.007495   -0.115432
H     2.330985    0.951784    0.076265    0.046413    0.135312    1.812034
12
* Frequency(15)  731.2490
C     1.321835    0.519090   -0.062389    0.001494    0.002764    0.048321
C     1.107941   -0.822511   -0.025226   -0.005741   -0.021310   -0.269907
N    -0.152137   -1.343818    0.111951    0.001098    0.002621    0.038948
C    -1.301804   -0.571200    0.136440    0.007046    0.021277    0.279854
N    -1.057808    0.781516   -0.017836    0.000939    0.006047    0.065946
C     0.183337    1.420358   -0.199876   -0.010432   -0.030007   -0.407662
O    -2.424955   -1.055153    0.121190   -0.002563   -0.007471   -0.092937
O     0.240874    2.649055   -0.182113    0.002422    0.008444    0.105116
H     1.925094   -1.538811    0.158169    0.011525    0.030761    0.421342
H    -0.281130   -2.342928    0.271058    0.010565    0.030554    0.394443
H    -1.884220    1.375774   -0.081119   -0.003624   -0.007495   -0.115432
H     2.335688    0.965495    0.259878    0.046413    0.135312    1.812034
12
* Frequency(15)  731.2490
C     1.321952    0.519306   -0.058618    0.001494    0.002764    0.048321
C     1.107493   -0.824174   -0.046288   -0.005741   -0.021310   -0.269907
N    -0.152052   -1.343613    0.114991    0.001098    0.002621    0.038948
C    -1.301255   -0.569540    0.158278    0.007046    0.021277    0.279854
N    -1.057735    0.781988   -0.012690    0.000939    0.006047    0.065946
C     0.182523    1.418016   -0.231688   -0.010432   -0.030007   -0.407662
O    -2.425155   -1.055736    0.113937   -0.002563   -0.007471   -0.092937
O     0.241063    2.649714   -0.173910    0.002422    0.008444    0.105116
H     1.925993   -1.536411    0.191048    0.011525    0.030761    0.421342
H    -0.280306   -2.340544    0.301838    0.010565    0.030554    0.394443
H    -1.884503    1.375189   -0.090127   -0.003624   -0.007495   -0.115432
H     2.339310    0.976054    0.401278    0.046413    0.135312    1.812034
12
* Frequency(15)  731.2490
C     1.322021    0.519434   -0.056382    0.001494    0.002764    0.048321
C     1.107227   -0.825160   -0.058780   -0.005741   -0.021310   -0.269907
N    -0.152001   -1.343492    0.116793    0.001098    0.002621    0.038948
C    -1.300928   -0.568555    0.171230    0.007046    0.021277    0.279854
N    -1.057691    0.782268   -0.009638    0.000939    0.006047    0.065946
C     0.182040    1.416627   -0.250555   -0.010432   -0.030007   -0.407662
O    -2.425274   -1.056081    0.109636   -0.002563   -0.007471   -0.092937
O     0.241175    2.650105   -0.169045    0.002422    0.008444    0.105116
H     1.926527   -1.534987    0.210548    0.011525    0.030761    0.421342
H    -0.279817   -2.339130    0.320094    0.010565    0.030554    0.394443
H    -1.884670    1.374842   -0.095469   -0.003624   -0.007495   -0.115432
H     2.341458    0.982316    0.485142    0.046413    0.135312    1.812034
12
* Frequency(15)  731.2490
C     1.322035    0.519460   -0.055922    0.001494    0.002764    0.048321
C     1.107173   -0.825363   -0.061348   -0.005741   -0.021310   -0.269907
N    -0.151990   -1.343467    0.117164    0.001098    0.002621    0.038948
C    -1.300861   -0.568353    0.173892    0.007046    0.021277    0.279854
N    -1.057682    0.782326   -0.009010    0.000939    0.006047    0.065946
C     0.181941    1.416342   -0.254434   -0.010432   -0.030007   -0.407662
O    -2.425298   -1.056153    0.108752   -0.002563   -0.007471   -0.092937
O     0.241198    2.650185   -0.168045    0.002422    0.008444    0.105116
H     1.926636   -1.534694    0.214557    0.011525    0.030761    0.421342
H    -0.279717   -2.338839    0.323847    0.010565    0.030554    0.394443
H    -1.884705    1.374771   -0.096568   -0.003624   -0.007495   -0.115432
H     2.341900    0.983603    0.502383    0.046413    0.135312    1.812034
12
* Frequency(15)  731.2490
C     1.321993    0.519382   -0.057289    0.001494    0.002764    0.048321
C     1.107335   -0.824760   -0.053714   -0.005741   -0.021310   -0.269907
N    -0.152021   -1.343541    0.116062    0.001098    0.002621    0.038948
C    -1.301061   -0.568954    0.165977    0.007046    0.021277    0.279854
N    -1.057709    0.782155   -0.010876    0.000939    0.006047    0.065946
C     0.182236    1.417191   -0.242904   -0.010432   -0.030007   -0.407662
O    -2.425226   -1.055941    0.111380   -0.002563   -0.007471   -0.092937
O     0.241130    2.649946   -0.171018    0.002422    0.008444    0.105116
H     1.926310   -1.535565    0.202640    0.011525    0.030761    0.421342
H    -0.280015   -2.339703    0.312690    0.010565    0.030554    0.394443
H    -1.884602    1.374983   -0.093303   -0.003624   -0.007495   -0.115432
H     2.340587    0.979776    0.451131    0.046413    0.135312    1.812034
12
* Frequency(15)  731.2490
C     1.321899    0.519208   -0.060334    0.001494    0.002764    0.048321
C     1.107697   -0.823417   -0.036705   -0.005741   -0.021310   -0.269907
N    -0.152091   -1.343706    0.113608    0.001098    0.002621    0.038948
C    -1.301505   -0.570295    0.148342    0.007046    0.021277    0.279854
N    -1.057768    0.781773   -0.015031    0.000939    0.006047    0.065946
C     0.182894    1.419082   -0.217214   -0.010432   -0.030007   -0.407662
O    -2.425064   -1.055470    0.117237   -0.002563   -0.007471   -0.092937
O     0.240977    2.649414   -0.177643    0.002422    0.008444    0.105116
H     1.925584   -1.537503    0.176088    0.011525    0.030761    0.421342
H    -0.280681   -2.341629    0.287834    0.010565    0.030554    0.394443
H    -1.884374    1.375455   -0.086029   -0.003624   -0.007495   -0.115432
H     2.337662    0.971249    0.336942    0.046413    0.135312    1.812034
12
* Frequency(15)  731.2490
C     1.321763    0.518957   -0.064727    0.001494    0.002764    0.048321
C     1.108219   -0.821480   -0.012164   -0.005741   -0.021310   -0.269907
N    -0.152190   -1.343945    0.110066    0.001098    0.002621    0.038948
C    -1.302145   -0.572230    0.122897    0.007046    0.021277    0.279854
N    -1.057854    0.781224   -0.021027    0.000939    0.006047    0.065946
C     0.183842    1.421810   -0.180149   -0.010432   -0.030007   -0.407662
O    -2.424831   -1.054791    0.125687   -0.002563   -0.007471   -0.092937
O     0.240757    2.648647   -0.187200    0.002422    0.008444    0.105116
H     1.924536   -1.540300    0.137779    0.011525    0.030761    0.421342
H    -0.281642   -2.344407    0.251970    0.010565    0.030554    0.394443
H    -1.884044    1.376137   -0.075533   -0.003624   -0.007495   -0.115432
H     2.333442    0.958947    0.172188    0.046413    0.135312    1.812034
12
* Frequency(15)  731.2490
C     1.321600    0.518655   -0.069993    0.001494    0.002764    0.048321
C     1.108845   -0.819158    0.017248   -0.005741   -0.021310   -0.269907
N    -0.152310   -1.344230    0.105822    0.001098    0.002621    0.038948
C    -1.302913   -0.574548    0.092400    0.007046    0.021277    0.279854
N    -1.057956    0.780565   -0.028214    0.000939    0.006047    0.065946
C     0.184979    1.425080   -0.135724   -0.010432   -0.030007   -0.407662
O    -2.424552   -1.053977    0.135815   -0.002563   -0.007471   -0.092937
O     0.240493    2.647726   -0.198655    0.002422    0.008444    0.105116
H     1.923280   -1.543652    0.091864    0.011525    0.030761    0.421342
H    -0.282793   -2.347736    0.208986    0.010565    0.030554    0.394443
H    -1.883650    1.376953   -0.062954   -0.003624   -0.007495   -0.115432
H     2.328385    0.944201   -0.025275    0.046413    0.135312    1.812034
12
* Frequency(15)  731.2490
C     1.321428    0.518337   -0.075560    0.001494    0.002764    0.048321
C     1.109506   -0.816702    0.048346   -0.005741   -0.021310   -0.269907
N    -0.152437   -1.344532    0.101335    0.001098    0.002621    0.038948
C    -1.303725   -0.577000    0.060156    0.007046    0.021277    0.279854
N    -1.058064    0.779868   -0.035812    0.000939    0.006047    0.065946
C     0.186181    1.428537   -0.088755   -0.010432   -0.030007   -0.407662
O    -2.424257   -1.053116    0.146523   -0.002563   -0.007471   -0.092937
O     0.240214    2.646753   -0.210766    0.002422    0.008444    0.105116
H     1.921952   -1.547196    0.043318    0.011525    0.030761    0.421342
H    -0.284010   -2.351257    0.163540    0.010565    0.030554    0.394443
H    -1.883232    1.377817   -0.049655   -0.003624   -0.007495   -0.115432
H     2.323037    0.928611   -0.234051    0.046413    0.135312    1.812034
12
* Frequency(15)  731.2490
C     1.321265    0.518036   -0.080826    0.001494    0.002764    0.048321
C     1.110132   -0.814380    0.077759   -0.005741   -0.021310   -0.269907
N    -0.152556   -1.344818    0.097090    0.001098    0.002621    0.038948
C    -1.304493   -0.579318    0.029660    0.007046    0.021277    0.279854
N    -1.058167    0.779209   -0.042998    0.000939    0.006047    0.065946
C     0.187318    1.431807   -0.044331   -0.010432   -0.030007   -0.407662
O    -2.423977   -1.052302    0.156650   -0.002563   -0.007471   -0.092937
O     0.239950    2.645833   -0.222221    0.002422    0.008444    0.105116
H     1.920696   -1.550548   -0.002597    0.011525    0.030761    0.421342
H    -0.285161   -2.354586    0.120556    0.010565    0.030554    0.394443
H    -1.882837    1.378634   -0.037076   -0.003624   -0.007495   -0.115432
H     2.317979    0.913866   -0.431515    0.046413    0.135312    1.812034
12
* Frequency(15)  731.2490
C     1.321129    0.517785   -0.085219    0.001494    0.002764    0.048321
C     1.110654   -0.812443    0.102299   -0.005741   -0.021310   -0.269907
N    -0.152656   -1.345056    0.093549    0.001098    0.002621    0.038948
C    -1.305134   -0.581253    0.004215    0.007046    0.021277    0.279854
N    -1.058252    0.778659   -0.048994    0.000939    0.006047    0.065946
C     0.188266    1.434536   -0.007265   -0.010432   -0.030007   -0.407662
O    -2.423744   -1.051623    0.165100   -0.002563   -0.007471   -0.092937
O     0.239730    2.645066   -0.231778    0.002422    0.008444    0.105116
H     1.919648   -1.553345   -0.040906    0.011525    0.030761    0.421342
H    -0.286122   -2.357364    0.084693    0.010565    0.030554    0.394443
H    -1.882507    1.379315   -0.026580   -0.003624   -0.007495   -0.115432
H     2.313759    0.901563   -0.596268    0.046413    0.135312    1.812034
12
* Frequency(15)  731.2490
C     1.321035    0.517610   -0.088264    0.001494    0.002764    0.048321
C     1.111015   -0.811100    0.119308   -0.005741   -0.021310   -0.269907
N    -0.152725   -1.345221    0.091095    0.001098    0.002621    0.038948
C    -1.305578   -0.582594   -0.013421    0.007046    0.021277    0.279854
N    -1.058311    0.778278   -0.053150    0.000939    0.006047    0.065946
C     0.188923    1.436426    0.018424   -0.010432   -0.030007   -0.407662
O    -2.423583   -1.051152    0.170957   -0.002563   -0.007471   -0.092937
O     0.239577    2.644533   -0.238402    0.002422    0.008444    0.105116
H     1.918922   -1.555283   -0.067458    0.011525    0.030761    0.421342
H    -0.286788   -2.359290    0.059836    0.010565    0.030554    0.394443
H    -1.882279    1.379787   -0.019306   -0.003624   -0.007495   -0.115432
H     2.310835    0.893036   -0.710458    0.046413    0.135312    1.812034
12
* Frequency(15)  731.2490
C     1.320993    0.517532   -0.089631    0.001494    0.002764    0.048321
C     1.111178   -0.810497    0.126942   -0.005741   -0.021310   -0.269907
N    -0.152756   -1.345295    0.089993    0.001098    0.002621    0.038948
C    -1.305777   -0.583195   -0.021336    0.007046    0.021277    0.279854
N    -1.058338    0.778107   -0.055015    0.000939    0.006047    0.065946
C     0.189218    1.437275    0.029955   -0.010432   -0.030007   -0.407662
O    -2.423510   -1.050941    0.173586   -0.002563   -0.007471   -0.092937
O     0.239509    2.644295   -0.241375    0.002422    0.008444    0.105116
H     1.918596   -1.556153   -0.079375    0.011525    0.030761    0.421342
H    -0.287087   -2.360154    0.048680    0.010565    0.030554    0.394443
H    -1.882177    1.379999   -0.016041   -0.003624   -0.007495   -0.115432
H     2.309522    0.889209   -0.761709    0.046413    0.135312    1.812034
12
* Frequency(15)  731.2490
C     1.321007    0.517559   -0.089171    0.001494    0.002764    0.048321
C     1.111123   -0.810700    0.124374   -0.005741   -0.021310   -0.269907
N    -0.152746   -1.345270    0.090364    0.001098    0.002621    0.038948
C    -1.305710   -0.582993   -0.018673    0.007046    0.021277    0.279854
N    -1.058329    0.778165   -0.054387    0.000939    0.006047    0.065946
C     0.189119    1.436990    0.026076   -0.010432   -0.030007   -0.407662
O    -2.423535   -1.051012    0.172701   -0.002563   -0.007471   -0.092937
O     0.239532    2.644375   -0.240375    0.002422    0.008444    0.105116
H     1.918706   -1.555861   -0.075366    0.011525    0.030761    0.421342
H    -0.286986   -2.359863    0.052433    0.010565    0.030554    0.394443
H    -1.882211    1.379928   -0.017140   -0.003624   -0.007495   -0.115432
H     2.309963    0.890496   -0.744468    0.046413    0.135312    1.812034
12
* Frequency(15)  731.2490
C     1.321076    0.517687   -0.086935    0.001494    0.002764    0.048321
C     1.110858   -0.811686    0.111882   -0.005741   -0.021310   -0.269907
N    -0.152695   -1.345149    0.092166    0.001098    0.002621    0.038948
C    -1.305384   -0.582008   -0.005721    0.007046    0.021277    0.279854
N    -1.058285    0.778445   -0.051335    0.000939    0.006047    0.065946
C     0.188636    1.435601    0.007209   -0.010432   -0.030007   -0.407662
O    -2.423653   -1.051358    0.168400   -0.002563   -0.007471   -0.092937
O     0.239644    2.644766   -0.235510    0.002422    0.008444    0.105116
H     1.919239   -1.554437   -0.055866    0.011525    0.030761    0.421342
H    -0.286497   -2.358449    0.070688    0.010565    0.030554    0.394443
H    -1.882379    1.379581   -0.022482   -0.003624   -0.007495   -0.115432
H     2.312111    0.896759   -0.660604    0.046413    0.135312    1.812034
12
* Frequency(15)  731.2490
C     1.321193    0.517902   -0.083164    0.001494    0.002764    0.048321
C     1.110410   -0.813349    0.090820   -0.005741   -0.021310   -0.269907
N    -0.152609   -1.344945    0.095205    0.001098    0.002621    0.038948
C    -1.304834   -0.580348    0.016117    0.007046    0.021277    0.279854
N    -1.058212    0.778916   -0.046189    0.000939    0.006047    0.065946
C     0.187822    1.433259   -0.024603   -0.010432   -0.030007   -0.407662
O    -2.423853   -1.051941    0.161148   -0.002563   -0.007471   -0.092937
O     0.239833    2.645425   -0.227307    0.002422    0.008444    0.105116
H     1.920139   -1.552037   -0.022987    0.011525    0.030761    0.421342
H    -0.285673   -2.356065    0.101468    0.010565    0.030554    0.394443
H    -1.882662    1.378996   -0.031490   -0.003624   -0.007495   -0.115432
H     2.315733    0.907318   -0.519204    0.046413    0.135312    1.812034
12
* Frequency(15)  731.2490
C     1.321344    0.518182   -0.078268    0.001494    0.002764    0.048321
C     1.109828   -0.815508    0.063471   -0.005741   -0.021310   -0.269907
N    -0.152498   -1.344679    0.099152    0.001098    0.002621    0.038948
C    -1.304120   -0.578192    0.044474    0.007046    0.021277    0.279854
N    -1.058117    0.779529   -0.039507    0.000939    0.006047    0.065946
C     0.186765    1.430219   -0.065911   -0.010432   -0.030007   -0.407662
O    -2.424113   -1.052698    0.151731   -0.002563   -0.007471   -0.092937
O     0.240078    2.646280   -0.216656    0.002422    0.008444    0.105116
H     1.921306   -1.548920    0.019708    0.011525    0.030761    0.421342
H    -0.284602   -2.352969    0.141437    0.010565    0.030554    0.394443
H    -1.883029    1.378237   -0.043186   -0.003624   -0.007495   -0.115432
H     2.320436    0.921029   -0.335591    0.046413    0.135312    1.812034
12
* Frequency(15)  731.2490
C     1.321514    0.518496   -0.072777    0.001494    0.002764    0.048321
C     1.109175   -0.817930    0.032797   -0.005741   -0.021310   -0.269907
N    -0.152373   -1.344381    0.103578    0.001098    0.002621    0.038948
C    -1.303319   -0.575774    0.076278    0.007046    0.021277    0.279854
N    -1.058010    0.780216   -0.032013    0.000939    0.006047    0.065946
C     0.185580    1.426809   -0.112240   -0.010432   -0.030007   -0.407662
O    -2.424404   -1.053547    0.141169   -0.002563   -0.007471   -0.092937
O     0.240353    2.647240   -0.204710    0.002422    0.008444    0.105116
H     1.922616   -1.545424    0.067591    0.011525    0.030761    0.421342
H    -0.283402   -2.349496    0.186263    0.010565    0.030554    0.394443
H    -1.883441    1.377385   -0.056304   -0.003624   -0.007495   -0.115432
H     2.325711    0.936406   -0.129663    0.046413    0.135312    1.812034
