12
* (null), Energy   -1000.0000000
C     1.625816    0.316601   -0.065250   -0.229015    0.187304   -0.008314
C     1.413215   -1.019528    0.041288    0.139756    0.094334   -0.010364
N     0.151412   -1.546563    0.113379    0.042224    0.017133   -0.002359
C    -1.001718   -0.778391    0.084609    0.205435   -0.287291    0.015888
N    -0.754728    0.578612   -0.023325   -0.027239    0.276265   -0.020245
C     0.489437    1.226278   -0.105125    0.350765    0.052631   -0.013093
O    -2.121379   -1.255957    0.147970   -0.139379   -0.018917    0.004878
O     0.544888    2.445398   -0.199422   -0.066340   -0.170957    0.014727
H     2.227146   -1.747036    0.075476   -0.654652   -0.789935    0.074563
H     0.020614   -2.552189    0.190181   -1.215583    0.168383    0.021235
H    -1.580237    1.175741   -0.048115   -0.648653   -0.562241    0.063478
H     2.630238    0.734097   -0.122298    0.011920   -0.439309    0.032923
12
* Frequency(27) 1422.6058
C     1.599789    0.337888   -0.066195   -0.229015    0.187304   -0.008314
C     1.429098   -1.008808    0.040110    0.139756    0.094334   -0.010364
N     0.156211   -1.544616    0.113111    0.042224    0.017133   -0.002359
C    -0.978371   -0.811040    0.086415    0.205435   -0.287291    0.015888
N    -0.757824    0.610008   -0.025625   -0.027239    0.276265   -0.020245
C     0.529300    1.232260   -0.106613    0.350765    0.052631   -0.013093
O    -2.137219   -1.258107    0.148525   -0.139379   -0.018917    0.004878
O     0.537349    2.425970   -0.197748   -0.066340   -0.170957    0.014727
H     2.152748   -1.836808    0.083949   -0.654652   -0.789935    0.074563
H    -0.117530   -2.533053    0.192594   -1.215583    0.168383    0.021235
H    -1.653954    1.111846   -0.040901   -0.648653   -0.562241    0.063478
H     2.631592    0.684172   -0.118556    0.011920   -0.439309    0.032923
12
* Frequency(27) 1422.6058
C     1.576583    0.356867   -0.067037   -0.229015    0.187304   -0.008314
C     1.443259   -0.999249    0.039060    0.139756    0.094334   -0.010364
N     0.160489   -1.542880    0.112872    0.042224    0.017133   -0.002359
C    -0.957555   -0.840151    0.088025    0.205435   -0.287291    0.015888
N    -0.760584    0.638002   -0.027677   -0.027239    0.276265   -0.020245
C     0.564843    1.237593   -0.107939    0.350765    0.052631   -0.013093
O    -2.151342   -1.260023    0.149019   -0.139379   -0.018917    0.004878
O     0.530626    2.408647   -0.196256   -0.066340   -0.170957    0.014727
H     2.086413   -1.916852    0.091505   -0.654652   -0.789935    0.074563
H    -0.240705   -2.515991    0.194746   -1.215583    0.168383    0.021235
H    -1.719681    1.054874   -0.034469   -0.648653   -0.562241    0.063478
H     2.632800    0.639657   -0.115220    0.011920   -0.439309    0.032923
12
* Frequency(27) 1422.6058
C     1.558712    0.371483   -0.067686   -0.229015    0.187304   -0.008314
C     1.454165   -0.991888    0.038251    0.139756    0.094334   -0.010364
N     0.163784   -1.541543    0.112688    0.042224    0.017133   -0.002359
C    -0.941524   -0.862569    0.089265    0.205435   -0.287291    0.015888
N    -0.762710    0.659560   -0.029257   -0.027239    0.276265   -0.020245
C     0.592214    1.241700   -0.108961    0.350765    0.052631   -0.013093
O    -2.162219   -1.261500    0.149399   -0.139379   -0.018917    0.004878
O     0.525450    2.395306   -0.195107   -0.066340   -0.170957    0.014727
H     2.035328   -1.978494    0.097323   -0.654652   -0.789935    0.074563
H    -0.335561   -2.502851    0.196403   -1.215583    0.168383    0.021235
H    -1.770298    1.011000   -0.029516   -0.648653   -0.562241    0.063478
H     2.633730    0.605376   -0.112651    0.011920   -0.439309    0.032923
12
* Frequency(27) 1422.6058
C     1.548113    0.380152   -0.068071   -0.229015    0.187304   -0.008314
C     1.460633   -0.987522    0.037771    0.139756    0.094334   -0.010364
N     0.165738   -1.540750    0.112578    0.042224    0.017133   -0.002359
C    -0.932016   -0.875866    0.090000    0.205435   -0.287291    0.015888
N    -0.763970    0.672346   -0.030194   -0.027239    0.276265   -0.020245
C     0.608448    1.244135   -0.109567    0.350765    0.052631   -0.013093
O    -2.168669   -1.262375    0.149625   -0.139379   -0.018917    0.004878
O     0.522379    2.387394   -0.194425   -0.066340   -0.170957    0.014727
H     2.005029   -2.015053    0.100774   -0.654652   -0.789935    0.074563
H    -0.391821   -2.495058    0.197386   -1.215583    0.168383    0.021235
H    -1.800319    0.984979   -0.026578   -0.648653   -0.562241    0.063478
H     2.634282    0.585044   -0.111127    0.011920   -0.439309    0.032923
12
* Frequency(27) 1422.6058
C     1.545934    0.381934   -0.068150   -0.229015    0.187304   -0.008314
C     1.461963   -0.986624    0.037673    0.139756    0.094334   -0.010364
N     0.166140   -1.540587    0.112556    0.042224    0.017133   -0.002359
C    -0.930061   -0.878599    0.090151    0.205435   -0.287291    0.015888
N    -0.764230    0.674975   -0.030386   -0.027239    0.276265   -0.020245
C     0.611786    1.244636   -0.109692    0.350765    0.052631   -0.013093
O    -2.169995   -1.262555    0.149672   -0.139379   -0.018917    0.004878
O     0.521748    2.385768   -0.194285   -0.066340   -0.170957    0.014727
H     1.998801   -2.022569    0.101484   -0.654652   -0.789935    0.074563
H    -0.403386   -2.493456    0.197588   -1.215583    0.168383    0.021235
H    -1.806491    0.979629   -0.025974   -0.648653   -0.562241    0.063478
H     2.634395    0.580864   -0.110814    0.011920   -0.439309    0.032923
12
* Frequency(27) 1422.6058
C     1.552412    0.376636   -0.067915   -0.229015    0.187304   -0.008314
C     1.458010   -0.989292    0.037966    0.139756    0.094334   -0.010364
N     0.164946   -1.541072    0.112623    0.042224    0.017133   -0.002359
C    -0.935872   -0.870474    0.089702    0.205435   -0.287291    0.015888
N    -0.763459    0.667161   -0.029814   -0.027239    0.276265   -0.020245
C     0.601865    1.243148   -0.109321    0.350765    0.052631   -0.013093
O    -2.166053   -1.262020    0.149534   -0.139379   -0.018917    0.004878
O     0.523624    2.390603   -0.194702   -0.066340   -0.170957    0.014727
H     2.017317   -2.000227    0.099375   -0.654652   -0.789935    0.074563
H    -0.369005   -2.498219    0.196987   -1.215583    0.168383    0.021235
H    -1.788144    0.995532   -0.027769   -0.648653   -0.562241    0.063478
H     2.634058    0.593289   -0.111745    0.011920   -0.439309    0.032923
12
* Frequency(27) 1422.6058
C     1.566843    0.364833   -0.067391   -0.229015    0.187304   -0.008314
C     1.449203   -0.995237    0.038619    0.139756    0.094334   -0.010364
N     0.162285   -1.542152    0.112771    0.042224    0.017133   -0.002359
C    -0.948818   -0.852369    0.088700    0.205435   -0.287291    0.015888
N    -0.761743    0.649751   -0.028538   -0.027239    0.276265   -0.020245
C     0.579760    1.239831   -0.108496    0.350765    0.052631   -0.013093
O    -2.157270   -1.260828    0.149226   -0.139379   -0.018917    0.004878
O     0.527805    2.401376   -0.195630   -0.066340   -0.170957    0.014727
H     2.058571   -1.950447    0.094676   -0.654652   -0.789935    0.074563
H    -0.292402   -2.508830    0.195649   -1.215583    0.168383    0.021235
H    -1.747268    1.030962   -0.031770   -0.648653   -0.562241    0.063478
H     2.633307    0.620974   -0.113820    0.011920   -0.439309    0.032923
12
* Frequency(27) 1422.6058
C     1.587666    0.347803   -0.066635   -0.229015    0.187304   -0.008314
C     1.436496   -1.003814    0.039561    0.139756    0.094334   -0.010364
N     0.158446   -1.543709    0.112986    0.042224    0.017133   -0.002359
C    -0.967496   -0.826248    0.087256    0.205435   -0.287291    0.015888
N    -0.759266    0.624633   -0.026697   -0.027239    0.276265   -0.020245
C     0.547868    1.235046   -0.107306    0.350765    0.052631   -0.013093
O    -2.144597   -1.259108    0.148783   -0.139379   -0.018917    0.004878
O     0.533837    2.416920   -0.196969   -0.066340   -0.170957    0.014727
H     2.118093   -1.878625    0.087896   -0.654652   -0.789935    0.074563
H    -0.181879   -2.524140    0.193718   -1.215583    0.168383    0.021235
H    -1.688291    1.082082   -0.037541   -0.648653   -0.562241    0.063478
H     2.632223    0.660916   -0.116813    0.011920   -0.439309    0.032923
12
* Frequency(27) 1422.6058
C     1.612622    0.327392   -0.065729   -0.229015    0.187304   -0.008314
C     1.421266   -1.014094    0.040691    0.139756    0.094334   -0.010364
N     0.153845   -1.545576    0.113243    0.042224    0.017133   -0.002359
C    -0.989883   -0.794941    0.085525    0.205435   -0.287291    0.015888
N    -0.756298    0.594527   -0.024491   -0.027239    0.276265   -0.020245
C     0.509644    1.229310   -0.105879    0.350765    0.052631   -0.013093
O    -2.129409   -1.257047    0.148251   -0.139379   -0.018917    0.004878
O     0.541066    2.435549   -0.198574   -0.066340   -0.170957    0.014727
H     2.189433   -1.792543    0.079771   -0.654652   -0.789935    0.074563
H    -0.049413   -2.542489    0.191404   -1.215583    0.168383    0.021235
H    -1.617605    1.143352   -0.044459   -0.648653   -0.562241    0.063478
H     2.630924    0.708789   -0.120401    0.011920   -0.439309    0.032923
12
* Frequency(27) 1422.6058
C     1.639009    0.305811   -0.064771   -0.229015    0.187304   -0.008314
C     1.405164   -1.024963    0.041885    0.139756    0.094334   -0.010364
N     0.148980   -1.547550    0.113515    0.042224    0.017133   -0.002359
C    -1.013552   -0.761840    0.083694    0.205435   -0.287291    0.015888
N    -0.753159    0.562697   -0.022158   -0.027239    0.276265   -0.020245
C     0.469230    1.223246   -0.104371    0.350765    0.052631   -0.013093
O    -2.113350   -1.254867    0.147689   -0.139379   -0.018917    0.004878
O     0.548710    2.455246   -0.200270   -0.066340   -0.170957    0.014727
H     2.264859   -1.701530    0.071180   -0.654652   -0.789935    0.074563
H     0.090642   -2.561889    0.188958   -1.215583    0.168383    0.021235
H    -1.542870    1.208131   -0.051772   -0.648653   -0.562241    0.063478
H     2.629551    0.759405   -0.124194    0.011920   -0.439309    0.032923
12
* Frequency(27) 1422.6058
C     1.663965    0.285400   -0.063865   -0.229015    0.187304   -0.008314
C     1.389934   -1.035243    0.043014    0.139756    0.094334   -0.010364
N     0.144378   -1.549417    0.113772    0.042224    0.017133   -0.002359
C    -1.035939   -0.730533    0.081963    0.205435   -0.287291    0.015888
N    -0.750191    0.532592   -0.019952   -0.027239    0.276265   -0.020245
C     0.431006    1.217511   -0.102944    0.350765    0.052631   -0.013093
O    -2.098161   -1.252806    0.147158   -0.139379   -0.018917    0.004878
O     0.555939    2.473876   -0.201875   -0.066340   -0.170957    0.014727
H     2.336199   -1.615448    0.063055   -0.654652   -0.789935    0.074563
H     0.223108   -2.580239    0.186644   -1.215583    0.168383    0.021235
H    -1.472184    1.269400   -0.058690   -0.648653   -0.562241    0.063478
H     2.628252    0.807278   -0.127782    0.011920   -0.439309    0.032923
12
* Frequency(27) 1422.6058
C     1.684788    0.268370   -0.063109   -0.229015    0.187304   -0.008314
C     1.377227   -1.043820    0.043957    0.139756    0.094334   -0.010364
N     0.140539   -1.550975    0.113987    0.042224    0.017133   -0.002359
C    -1.054618   -0.704412    0.080518    0.205435   -0.287291    0.015888
N    -0.747714    0.507473   -0.018111   -0.027239    0.276265   -0.020245
C     0.399114    1.212726   -0.101753    0.350765    0.052631   -0.013093
O    -2.085489   -1.251086    0.146714   -0.139379   -0.018917    0.004878
O     0.561971    2.489420   -0.203214   -0.066340   -0.170957    0.014727
H     2.395721   -1.543625    0.056275   -0.654652   -0.789935    0.074563
H     0.333631   -2.595548    0.184713   -1.215583    0.168383    0.021235
H    -1.413207    1.320520   -0.064461   -0.648653   -0.562241    0.063478
H     2.627168    0.847221   -0.130775    0.011920   -0.439309    0.032923
12
* Frequency(27) 1422.6058
C     1.699219    0.256567   -0.062585   -0.229015    0.187304   -0.008314
C     1.368420   -1.049765    0.044610    0.139756    0.094334   -0.010364
N     0.137878   -1.552055    0.114135    0.042224    0.017133   -0.002359
C    -1.067564   -0.686308    0.079517    0.205435   -0.287291    0.015888
N    -0.745998    0.490064   -0.016835   -0.027239    0.276265   -0.020245
C     0.377010    1.209409   -0.100928    0.350765    0.052631   -0.013093
O    -2.076706   -1.249893    0.146407   -0.139379   -0.018917    0.004878
O     0.566151    2.500193   -0.204142   -0.066340   -0.170957    0.014727
H     2.436976   -1.493846    0.051576   -0.654652   -0.789935    0.074563
H     0.410234   -2.606159    0.183375   -1.215583    0.168383    0.021235
H    -1.372331    1.355951   -0.068462   -0.648653   -0.562241    0.063478
H     2.626417    0.874905   -0.132850    0.011920   -0.439309    0.032923
12
* Frequency(27) 1422.6058
C     1.705697    0.251269   -0.062350   -0.229015    0.187304   -0.008314
C     1.364467   -1.052433    0.044903    0.139756    0.094334   -0.010364
N     0.136684   -1.552539    0.114202    0.042224    0.017133   -0.002359
C    -1.073374   -0.678182    0.079068    0.205435   -0.287291    0.015888
N    -0.745227    0.482250   -0.016263   -0.027239    0.276265   -0.020245
C     0.367089    1.207921   -0.100558    0.350765    0.052631   -0.013093
O    -2.072763   -1.249358    0.146269   -0.139379   -0.018917    0.004878
O     0.568028    2.505028   -0.204559   -0.066340   -0.170957    0.014727
H     2.455492   -1.471503    0.049467   -0.654652   -0.789935    0.074563
H     0.444615   -2.610922    0.182774   -1.215583    0.168383    0.021235
H    -1.353984    1.371854   -0.070257   -0.648653   -0.562241    0.063478
H     2.626080    0.887330   -0.133781    0.011920   -0.439309    0.032923
12
* Frequency(27) 1422.6058
C     1.703518    0.253051   -0.062429   -0.229015    0.187304   -0.008314
C     1.365797   -1.051535    0.044804    0.139756    0.094334   -0.010364
N     0.137086   -1.552376    0.114180    0.042224    0.017133   -0.002359
C    -1.071420   -0.680916    0.079219    0.205435   -0.287291    0.015888
N    -0.745486    0.484878   -0.016455   -0.027239    0.276265   -0.020245
C     0.370426    1.208421   -0.100683    0.350765    0.052631   -0.013093
O    -2.074090   -1.249538    0.146315   -0.139379   -0.018917    0.004878
O     0.567396    2.503402   -0.204419   -0.066340   -0.170957    0.014727
H     2.449263   -1.479019    0.050177   -0.654652   -0.789935    0.074563
H     0.433049   -2.609320    0.182976   -1.215583    0.168383    0.021235
H    -1.360156    1.366504   -0.069653   -0.648653   -0.562241    0.063478
H     2.626193    0.883150   -0.133468    0.011920   -0.439309    0.032923
12
* Frequency(27) 1422.6058
C     1.692919    0.261720   -0.062814   -0.229015    0.187304   -0.008314
C     1.372265   -1.047169    0.044325    0.139756    0.094334   -0.010364
N     0.139040   -1.551583    0.114070    0.042224    0.017133   -0.002359
C    -1.061912   -0.694212    0.079954    0.205435   -0.287291    0.015888
N    -0.746747    0.497664   -0.017392   -0.027239    0.276265   -0.020245
C     0.386660    1.210857   -0.101289    0.350765    0.052631   -0.013093
O    -2.080540   -1.250414    0.146541   -0.139379   -0.018917    0.004878
O     0.564326    2.495490   -0.203737   -0.066340   -0.170957    0.014727
H     2.418965   -1.515579    0.053628   -0.654652   -0.789935    0.074563
H     0.376790   -2.601527    0.183959   -1.215583    0.168383    0.021235
H    -1.390177    1.340483   -0.066715   -0.648653   -0.562241    0.063478
H     2.626745    0.862818   -0.131944    0.011920   -0.439309    0.032923
12
* Frequency(27) 1422.6058
C     1.675048    0.276336   -0.063463   -0.229015    0.187304   -0.008314
C     1.383171   -1.039808    0.043516    0.139756    0.094334   -0.010364
N     0.142335   -1.550246    0.113886    0.042224    0.017133   -0.002359
C    -1.045881   -0.716630    0.081194    0.205435   -0.287291    0.015888
N    -0.748873    0.519222   -0.018972   -0.027239    0.276265   -0.020245
C     0.414032    1.214964   -0.102310    0.350765    0.052631   -0.013093
O    -2.091417   -1.251890    0.146922   -0.139379   -0.018917    0.004878
O     0.559149    2.482149   -0.202588   -0.066340   -0.170957    0.014727
H     2.367880   -1.577221    0.059446   -0.654652   -0.789935    0.074563
H     0.281934   -2.588387    0.185616   -1.215583    0.168383    0.021235
H    -1.440794    1.296609   -0.061762   -0.648653   -0.562241    0.063478
H     2.627675    0.828537   -0.129375    0.011920   -0.439309    0.032923
12
* Frequency(27) 1422.6058
C     1.651842    0.295315   -0.064305   -0.229015    0.187304   -0.008314
C     1.397332   -1.030249    0.042466    0.139756    0.094334   -0.010364
N     0.146614   -1.548510    0.113647    0.042224    0.017133   -0.002359
C    -1.025064   -0.745742    0.082804    0.205435   -0.287291    0.015888
N    -0.751633    0.547216   -0.021024   -0.027239    0.276265   -0.020245
C     0.449575    1.220297   -0.103637    0.350765    0.052631   -0.013093
O    -2.105540   -1.253807    0.147416   -0.139379   -0.018917    0.004878
O     0.552427    2.464826   -0.201096   -0.066340   -0.170957    0.014727
H     2.301544   -1.657264    0.067002   -0.654652   -0.789935    0.074563
H     0.158759   -2.571325    0.187768   -1.215583    0.168383    0.021235
H    -1.506521    1.239637   -0.055329   -0.648653   -0.562241    0.063478
H     2.628883    0.784022   -0.126039    0.011920   -0.439309    0.032923
12
* Frequency(27) 1422.6058
C     1.625816    0.316601   -0.065250   -0.229015    0.187304   -0.008314
C     1.413215   -1.019528    0.041288    0.139756    0.094334   -0.010364
N     0.151412   -1.546563    0.113379    0.042224    0.017133   -0.002359
C    -1.001718   -0.778391    0.084609    0.205435   -0.287291    0.015888
N    -0.754728    0.578612   -0.023325   -0.027239    0.276265   -0.020245
C     0.489437    1.226278   -0.105125    0.350765    0.052631   -0.013093
O    -2.121379   -1.255957    0.147970   -0.139379   -0.018917    0.004878
O     0.544888    2.445398   -0.199422   -0.066340   -0.170957    0.014727
H     2.227146   -1.747036    0.075476   -0.654652   -0.789935    0.074563
H     0.020614   -2.552189    0.190181   -1.215583    0.168383    0.021235
H    -1.580237    1.175741   -0.048115   -0.648653   -0.562241    0.063478
H     2.630238    0.734097   -0.122298    0.011920   -0.439309    0.032923
