12
* (null), Energy   -1000.0000000
C     1.625816    0.316601   -0.065250    0.015826    0.091160   -0.007248
C     1.413215   -1.019528    0.041288    0.078248    0.003356   -0.002009
N     0.151412   -1.546563    0.113379    0.001462   -0.115570    0.008726
C    -1.001718   -0.778391    0.084609   -0.124339    0.344616   -0.022470
N    -0.754728    0.578612   -0.023325    0.280650    0.126854   -0.017559
C     0.489437    1.226278   -0.105125   -0.206007    0.047254    0.001828
O    -2.121379   -1.255957    0.147970   -0.068306   -0.104265    0.009350
O     0.544888    2.445398   -0.199422    0.009304   -0.116548    0.008512
H     2.227146   -1.747036    0.075476   -0.236451   -0.374646    0.033835
H     0.020614   -2.552189    0.190181    0.653837   -0.204662   -0.002480
H    -1.580237    1.175741   -0.048115   -0.836102   -1.421242    0.136928
H     2.630238    0.734097   -0.122298    0.250359   -0.447109    0.027228
12
* Frequency(26) 1411.3431
C     1.627614    0.326961   -0.066074    0.015826    0.091160   -0.007248
C     1.422108   -1.019147    0.041060    0.078248    0.003356   -0.002009
N     0.151578   -1.559697    0.114371    0.001462   -0.115570    0.008726
C    -1.015848   -0.739227    0.082056   -0.124339    0.344616   -0.022470
N    -0.722834    0.593028   -0.025320    0.280650    0.126854   -0.017559
C     0.466026    1.231648   -0.104917   -0.206007    0.047254    0.001828
O    -2.129142   -1.267806    0.149033   -0.068306   -0.104265    0.009350
O     0.545945    2.432153   -0.198455    0.009304   -0.116548    0.008512
H     2.200275   -1.789613    0.079321   -0.236451   -0.374646    0.033835
H     0.094919   -2.575448    0.189899    0.653837   -0.204662   -0.002480
H    -1.675256    1.014225   -0.032554   -0.836102   -1.421242    0.136928
H     2.658690    0.683285   -0.119203    0.250359   -0.447109    0.027228
12
* Frequency(26) 1411.3431
C     1.629218    0.336199   -0.066808    0.015826    0.091160   -0.007248
C     1.430036   -1.018807    0.040856    0.078248    0.003356   -0.002009
N     0.151726   -1.571408    0.115255    0.001462   -0.115570    0.008726
C    -1.028447   -0.704307    0.079779   -0.124339    0.344616   -0.022470
N    -0.694396    0.605883   -0.027099    0.280650    0.126854   -0.017559
C     0.445151    1.236437   -0.104732   -0.206007    0.047254    0.001828
O    -2.136063   -1.278371    0.149980   -0.068306   -0.104265    0.009350
O     0.546888    2.420343   -0.197592    0.009304   -0.116548    0.008512
H     2.176315   -1.827576    0.082749   -0.236451   -0.374646    0.033835
H     0.161173   -2.596186    0.189648    0.653837   -0.204662   -0.002480
H    -1.759978    0.870211   -0.018679   -0.836102   -1.421242    0.136928
H     2.684058    0.637980   -0.116444    0.250359   -0.447109    0.027228
12
* Frequency(26) 1411.3431
C     1.630453    0.343312   -0.067374    0.015826    0.091160   -0.007248
C     1.436143   -1.018545    0.040699    0.078248    0.003356   -0.002009
N     0.151840   -1.580426    0.115936    0.001462   -0.115570    0.008726
C    -1.038150   -0.677415    0.078025   -0.124339    0.344616   -0.022470
N    -0.672495    0.615781   -0.028469    0.280650    0.126854   -0.017559
C     0.429076    1.240124   -0.104589   -0.206007    0.047254    0.001828
O    -2.141394   -1.286507    0.150710   -0.068306   -0.104265    0.009350
O     0.547614    2.411248   -0.196928    0.009304   -0.116548    0.008512
H     2.157864   -1.856811    0.085389   -0.236451   -0.374646    0.033835
H     0.212194   -2.612157    0.189454    0.653837   -0.204662   -0.002480
H    -1.825222    0.759306   -0.007994   -0.836102   -1.421242    0.136928
H     2.703595    0.603090   -0.114320    0.250359   -0.447109    0.027228
12
* Frequency(26) 1411.3431
C     1.631185    0.347531   -0.067709    0.015826    0.091160   -0.007248
C     1.439764   -1.018390    0.040606    0.078248    0.003356   -0.002009
N     0.151908   -1.585775    0.116339    0.001462   -0.115570    0.008726
C    -1.043905   -0.661466    0.076985   -0.124339    0.344616   -0.022470
N    -0.659506    0.621652   -0.029282    0.280650    0.126854   -0.017559
C     0.419541    1.242311   -0.104505   -0.206007    0.047254    0.001828
O    -2.144555   -1.291333    0.151142   -0.068306   -0.104265    0.009350
O     0.548044    2.405854   -0.196534    0.009304   -0.116548    0.008512
H     2.146921   -1.874150    0.086955   -0.236451   -0.374646    0.033835
H     0.242455   -2.621629    0.189339    0.653837   -0.204662   -0.002480
H    -1.863919    0.693528   -0.001657   -0.836102   -1.421242    0.136928
H     2.715182    0.582397   -0.113060    0.250359   -0.447109    0.027228
12
* Frequency(26) 1411.3431
C     1.631336    0.348399   -0.067778    0.015826    0.091160   -0.007248
C     1.440508   -1.018358    0.040587    0.078248    0.003356   -0.002009
N     0.151922   -1.586875    0.116423    0.001462   -0.115570    0.008726
C    -1.045088   -0.658187    0.076772   -0.124339    0.344616   -0.022470
N    -0.656836    0.622859   -0.029449    0.280650    0.126854   -0.017559
C     0.417581    1.242761   -0.104487   -0.206007    0.047254    0.001828
O    -2.145205   -1.292325    0.151231   -0.068306   -0.104265    0.009350
O     0.548133    2.404745   -0.196453    0.009304   -0.116548    0.008512
H     2.144671   -1.877715    0.087277   -0.236451   -0.374646    0.033835
H     0.248676   -2.623576    0.189316    0.653837   -0.204662   -0.002480
H    -1.871874    0.680006   -0.000354   -0.836102   -1.421242    0.136928
H     2.717564    0.578143   -0.112800    0.250359   -0.447109    0.027228
12
* Frequency(26) 1411.3431
C     1.630888    0.345820   -0.067573    0.015826    0.091160   -0.007248
C     1.438295   -1.018453    0.040644    0.078248    0.003356   -0.002009
N     0.151881   -1.583606    0.116176    0.001462   -0.115570    0.008726
C    -1.041571   -0.667934    0.077407   -0.124339    0.344616   -0.022470
N    -0.664774    0.619271   -0.028952    0.280650    0.126854   -0.017559
C     0.423408    1.241424   -0.104539   -0.206007    0.047254    0.001828
O    -2.143273   -1.289376    0.150967   -0.068306   -0.104265    0.009350
O     0.547870    2.408042   -0.196694    0.009304   -0.116548    0.008512
H     2.151359   -1.867118    0.086320   -0.236451   -0.374646    0.033835
H     0.230182   -2.617788    0.189386    0.653837   -0.204662   -0.002480
H    -1.848225    0.720204   -0.004227   -0.836102   -1.421242    0.136928
H     2.710483    0.590789   -0.113571    0.250359   -0.447109    0.027228
12
* Frequency(26) 1411.3431
C     1.629891    0.340076   -0.067117    0.015826    0.091160   -0.007248
C     1.433364   -1.018664    0.040771    0.078248    0.003356   -0.002009
N     0.151789   -1.576323    0.115626    0.001462   -0.115570    0.008726
C    -1.033735   -0.689651    0.078823   -0.124339    0.344616   -0.022470
N    -0.682460    0.611277   -0.027846    0.280650    0.126854   -0.017559
C     0.436390    1.238446   -0.104654   -0.206007    0.047254    0.001828
O    -2.138968   -1.282805    0.150378   -0.068306   -0.104265    0.009350
O     0.547284    2.415386   -0.197230    0.009304   -0.116548    0.008512
H     2.166259   -1.843509    0.084188   -0.236451   -0.374646    0.033835
H     0.188979   -2.604890    0.189542    0.653837   -0.204662   -0.002480
H    -1.795537    0.809767   -0.012856   -0.836102   -1.421242    0.136928
H     2.694706    0.618965   -0.115286    0.250359   -0.447109    0.027228
12
* Frequency(26) 1411.3431
C     1.628452    0.331787   -0.066458    0.015826    0.091160   -0.007248
C     1.426250   -1.018969    0.040953    0.078248    0.003356   -0.002009
N     0.151656   -1.565815    0.114833    0.001462   -0.115570    0.008726
C    -1.022430   -0.720984    0.080866   -0.124339    0.344616   -0.022470
N    -0.707977    0.599744   -0.026250    0.280650    0.126854   -0.017559
C     0.455120    1.234150   -0.104820   -0.206007    0.047254    0.001828
O    -2.132758   -1.273325    0.149528   -0.068306   -0.104265    0.009350
O     0.546438    2.425983   -0.198004    0.009304   -0.116548    0.008512
H     2.187758   -1.809445    0.081112   -0.236451   -0.374646    0.033835
H     0.129531   -2.586282    0.189768    0.653837   -0.204662   -0.002480
H    -1.719517    0.938989   -0.025306   -0.836102   -1.421242    0.136928
H     2.671943    0.659617   -0.117762    0.250359   -0.447109    0.027228
12
* Frequency(26) 1411.3431
C     1.626727    0.321853   -0.065668    0.015826    0.091160   -0.007248
C     1.417723   -1.019335    0.041172    0.078248    0.003356   -0.002009
N     0.151496   -1.553221    0.113882    0.001462   -0.115570    0.008726
C    -1.008881   -0.758538    0.083315   -0.124339    0.344616   -0.022470
N    -0.738561    0.585920   -0.024336    0.280650    0.126854   -0.017559
C     0.477570    1.229001   -0.105020   -0.206007    0.047254    0.001828
O    -2.125314   -1.261963    0.148509   -0.068306   -0.104265    0.009350
O     0.545424    2.438684   -0.198932    0.009304   -0.116548    0.008512
H     2.213525   -1.768619    0.077425   -0.236451   -0.374646    0.033835
H     0.058281   -2.563979    0.190038    0.653837   -0.204662   -0.002480
H    -1.628404    1.093866   -0.040227   -0.836102   -1.421242    0.136928
H     2.644660    0.708340   -0.120729    0.250359   -0.447109    0.027228
12
* Frequency(26) 1411.3431
C     1.624904    0.311350   -0.064833    0.015826    0.091160   -0.007248
C     1.408707   -1.019722    0.041404    0.078248    0.003356   -0.002009
N     0.151328   -1.539906    0.112876    0.001462   -0.115570    0.008726
C    -0.994555   -0.798243    0.085904   -0.124339    0.344616   -0.022470
N    -0.770896    0.571304   -0.022313    0.280650    0.126854   -0.017559
C     0.501305    1.223556   -0.105230   -0.206007    0.047254    0.001828
O    -2.117444   -1.249950    0.147432   -0.068306   -0.104265    0.009350
O     0.544352    2.452112   -0.199912    0.009304   -0.116548    0.008512
H     2.240768   -1.725454    0.073526   -0.236451   -0.374646    0.033835
H    -0.017052   -2.540399    0.190324    0.653837   -0.204662   -0.002480
H    -1.532071    1.257616   -0.056004   -0.836102   -1.421242    0.136928
H     2.615815    0.759854   -0.123866    0.250359   -0.447109    0.027228
12
* Frequency(26) 1411.3431
C     1.623179    0.301416   -0.064043    0.015826    0.091160   -0.007248
C     1.400180   -1.020088    0.041623    0.078248    0.003356   -0.002009
N     0.151169   -1.527312    0.111925    0.001462   -0.115570    0.008726
C    -0.981005   -0.835797    0.088352   -0.124339    0.344616   -0.022470
N    -0.801480    0.557481   -0.020400    0.280650    0.126854   -0.017559
C     0.523754    1.218407   -0.105429   -0.206007    0.047254    0.001828
O    -2.110001   -1.238588    0.146413   -0.068306   -0.104265    0.009350
O     0.543338    2.464813   -0.200840    0.009304   -0.116548    0.008512
H     2.266535   -1.684627    0.069839   -0.236451   -0.374646    0.033835
H    -0.088303   -2.518096    0.190594    0.653837   -0.204662   -0.002480
H    -1.440958    1.412494   -0.070925   -0.836102   -1.421242    0.136928
H     2.588532    0.808577   -0.126833    0.250359   -0.447109    0.027228
12
* Frequency(26) 1411.3431
C     1.621740    0.293127   -0.063384    0.015826    0.091160   -0.007248
C     1.393066   -1.020393    0.041805    0.078248    0.003356   -0.002009
N     0.151036   -1.516804    0.111132    0.001462   -0.115570    0.008726
C    -0.969700   -0.867130    0.090396   -0.124339    0.344616   -0.022470
N    -0.826997    0.545947   -0.018803    0.280650    0.126854   -0.017559
C     0.542485    1.214110   -0.105596   -0.206007    0.047254    0.001828
O    -2.103790   -1.229108    0.145563   -0.068306   -0.104265    0.009350
O     0.542492    2.475410   -0.201614    0.009304   -0.116548    0.008512
H     2.288033   -1.650564    0.066763   -0.236451   -0.374646    0.033835
H    -0.147751   -2.499488    0.190820    0.653837   -0.204662   -0.002480
H    -1.364938    1.541716   -0.083375   -0.836102   -1.421242    0.136928
H     2.565769    0.849229   -0.129309    0.250359   -0.447109    0.027228
12
* Frequency(26) 1411.3431
C     1.620743    0.287383   -0.062927    0.015826    0.091160   -0.007248
C     1.388135   -1.020604    0.041932    0.078248    0.003356   -0.002009
N     0.150944   -1.509521    0.110582    0.001462   -0.115570    0.008726
C    -0.961864   -0.888847    0.091812   -0.124339    0.344616   -0.022470
N    -0.844683    0.537953   -0.017697    0.280650    0.126854   -0.017559
C     0.555467    1.211133   -0.105711   -0.206007    0.047254    0.001828
O    -2.099486   -1.222538    0.144973   -0.068306   -0.104265    0.009350
O     0.541906    2.482754   -0.202150    0.009304   -0.116548    0.008512
H     2.302934   -1.626954    0.064631   -0.236451   -0.374646    0.033835
H    -0.188954   -2.486591    0.190976    0.653837   -0.204662   -0.002480
H    -1.312249    1.631279   -0.092004   -0.836102   -1.421242    0.136928
H     2.549992    0.877405   -0.131025    0.250359   -0.447109    0.027228
12
* Frequency(26) 1411.3431
C     1.620295    0.284804   -0.062722    0.015826    0.091160   -0.007248
C     1.385922   -1.020699    0.041989    0.078248    0.003356   -0.002009
N     0.150902   -1.506252    0.110335    0.001462   -0.115570    0.008726
C    -0.958348   -0.898594    0.092447   -0.124339    0.344616   -0.022470
N    -0.852620    0.534365   -0.017200    0.280650    0.126854   -0.017559
C     0.561293    1.209796   -0.105763   -0.206007    0.047254    0.001828
O    -2.097554   -1.219589    0.144709   -0.068306   -0.104265    0.009350
O     0.541643    2.486051   -0.202391    0.009304   -0.116548    0.008512
H     2.309621   -1.616358    0.063674   -0.236451   -0.374646    0.033835
H    -0.207447   -2.480802    0.191046    0.653837   -0.204662   -0.002480
H    -1.288601    1.671477   -0.095876   -0.836102   -1.421242    0.136928
H     2.542911    0.890051   -0.131795    0.250359   -0.447109    0.027228
12
* Frequency(26) 1411.3431
C     1.620446    0.285672   -0.062791    0.015826    0.091160   -0.007248
C     1.386666   -1.020667    0.041970    0.078248    0.003356   -0.002009
N     0.150916   -1.507352    0.110418    0.001462   -0.115570    0.008726
C    -0.959531   -0.895315    0.092233   -0.124339    0.344616   -0.022470
N    -0.849950    0.535572   -0.017367    0.280650    0.126854   -0.017559
C     0.559333    1.210246   -0.105745   -0.206007    0.047254    0.001828
O    -2.098204   -1.220581    0.144798   -0.068306   -0.104265    0.009350
O     0.541731    2.484942   -0.202310    0.009304   -0.116548    0.008512
H     2.307372   -1.619922    0.063996   -0.236451   -0.374646    0.033835
H    -0.201226   -2.482749    0.191022    0.653837   -0.204662   -0.002480
H    -1.296556    1.657955   -0.094574   -0.836102   -1.421242    0.136928
H     2.545293    0.885797   -0.131536    0.250359   -0.447109    0.027228
12
* Frequency(26) 1411.3431
C     1.621178    0.289891   -0.063126    0.015826    0.091160   -0.007248
C     1.390288   -1.020512    0.041877    0.078248    0.003356   -0.002009
N     0.150984   -1.512700    0.110822    0.001462   -0.115570    0.008726
C    -0.965285   -0.879366    0.091193   -0.124339    0.344616   -0.022470
N    -0.836961    0.541443   -0.018180    0.280650    0.126854   -0.017559
C     0.549799    1.212433   -0.105661   -0.206007    0.047254    0.001828
O    -2.101365   -1.225406    0.145231   -0.068306   -0.104265    0.009350
O     0.542162    2.479548   -0.201916    0.009304   -0.116548    0.008512
H     2.296428   -1.637262    0.065562   -0.236451   -0.374646    0.033835
H    -0.170965   -2.492221    0.190908    0.653837   -0.204662   -0.002480
H    -1.335253    1.592177   -0.088236   -0.836102   -1.421242    0.136928
H     2.556880    0.865104   -0.130276    0.250359   -0.447109    0.027228
12
* Frequency(26) 1411.3431
C     1.622413    0.297004   -0.063692    0.015826    0.091160   -0.007248
C     1.396394   -1.020250    0.041720    0.078248    0.003356   -0.002009
N     0.151098   -1.521719    0.111503    0.001462   -0.115570    0.008726
C    -0.974988   -0.852474    0.089440   -0.124339    0.344616   -0.022470
N    -0.815061    0.551342   -0.019550    0.280650    0.126854   -0.017559
C     0.533723    1.216120   -0.105518   -0.206007    0.047254    0.001828
O    -2.106695   -1.233542    0.145960   -0.068306   -0.104265    0.009350
O     0.542888    2.470453   -0.201252    0.009304   -0.116548    0.008512
H     2.277977   -1.666497    0.068202   -0.236451   -0.374646    0.033835
H    -0.119944   -2.508192    0.190714    0.653837   -0.204662   -0.002480
H    -1.400497    1.481272   -0.077551   -0.836102   -1.421242    0.136928
H     2.576417    0.830214   -0.128151    0.250359   -0.447109    0.027228
12
* Frequency(26) 1411.3431
C     1.624017    0.306242   -0.064426    0.015826    0.091160   -0.007248
C     1.404323   -1.019910    0.041516    0.078248    0.003356   -0.002009
N     0.151246   -1.533429    0.112387    0.001462   -0.115570    0.008726
C    -0.987587   -0.817555    0.087163   -0.124339    0.344616   -0.022470
N    -0.786623    0.564196   -0.021329    0.280650    0.126854   -0.017559
C     0.512849    1.220908   -0.105333   -0.206007    0.047254    0.001828
O    -2.113617   -1.244108    0.146908   -0.068306   -0.104265    0.009350
O     0.543831    2.458643   -0.200389    0.009304   -0.116548    0.008512
H     2.254018   -1.704460    0.071630   -0.236451   -0.374646    0.033835
H    -0.053691   -2.528930    0.190463    0.653837   -0.204662   -0.002480
H    -1.485219    1.337258   -0.063677   -0.836102   -1.421242    0.136928
H     2.601786    0.784909   -0.125392    0.250359   -0.447109    0.027228
12
* Frequency(26) 1411.3431
C     1.625816    0.316601   -0.065250    0.015826    0.091160   -0.007248
C     1.413215   -1.019528    0.041288    0.078248    0.003356   -0.002009
N     0.151412   -1.546563    0.113379    0.001462   -0.115570    0.008726
C    -1.001718   -0.778391    0.084609   -0.124339    0.344616   -0.022470
N    -0.754728    0.578612   -0.023325    0.280650    0.126854   -0.017559
C     0.489437    1.226278   -0.105125   -0.206007    0.047254    0.001828
O    -2.121379   -1.255957    0.147970   -0.068306   -0.104265    0.009350
O     0.544888    2.445398   -0.199422    0.009304   -0.116548    0.008512
H     2.227146   -1.747036    0.075476   -0.236451   -0.374646    0.033835
H     0.020614   -2.552189    0.190181    0.653837   -0.204662   -0.002480
H    -1.580237    1.175741   -0.048115   -0.836102   -1.421242    0.136928
H     2.630238    0.734097   -0.122298    0.250359   -0.447109    0.027228
