12
* (null), Energy   -1000.0000000
C     1.321514    0.518496   -0.072777   -0.322100    0.327533   -0.025165
C     1.109175   -0.817930    0.032797   -0.848608    0.585089   -0.001728
N    -0.152373   -1.344381    0.103578   -0.309952    0.089924   -0.038947
C    -1.303319   -0.575774    0.076278    0.348670    0.138829    0.095064
N    -1.058010    0.780216   -0.032013    0.400524   -0.224238   -0.032231
C     0.185580    1.426809   -0.112240    0.021604   -0.383944    0.048659
O    -2.424404   -1.053547    0.141169    0.522844    0.091069   -0.053090
O     0.240353    2.647240   -0.204710    0.044488   -0.526636    0.033632
H     1.922616   -1.545424    0.067591   -0.741919    0.770805   -0.059394
H    -0.283402   -2.349496    0.186263   -0.189900    0.089425    0.000968
H    -1.883441    1.377385   -0.056304    0.479114   -0.156038    0.042963
H     2.325711    0.936406   -0.129663   -0.272874    0.121748   -0.078719
12
* Frequency(17)  784.4089
C     1.284909    0.555719   -0.075637   -0.322100    0.327533   -0.025165
C     1.012735   -0.751438    0.032601   -0.848608    0.585089   -0.001728
N    -0.187598   -1.334162    0.099152   -0.309952    0.089924   -0.038947
C    -1.263695   -0.559997    0.087082    0.348670    0.138829    0.095064
N    -1.012493    0.754733   -0.035676    0.400524   -0.224238   -0.032231
C     0.188035    1.383175   -0.106710    0.021604   -0.383944    0.048659
O    -2.364986   -1.043197    0.135135    0.522844    0.091069   -0.053090
O     0.245409    2.587390   -0.200888    0.044488   -0.526636    0.033632
H     1.838301   -1.457826    0.060841   -0.741919    0.770805   -0.059394
H    -0.304983   -2.339334    0.186373   -0.189900    0.089425    0.000968
H    -1.828992    1.359652   -0.051422    0.479114   -0.156038    0.042963
H     2.294700    0.950242   -0.138609   -0.272874    0.121748   -0.078719
12
* Frequency(17)  784.4089
C     1.252271    0.588907   -0.078187   -0.322100    0.327533   -0.025165
C     0.926746   -0.692151    0.032426   -0.848608    0.585089   -0.001728
N    -0.219005   -1.325050    0.095206   -0.309952    0.089924   -0.038947
C    -1.228364   -0.545929    0.096715    0.348670    0.138829    0.095064
N    -0.971908    0.732011   -0.038942    0.400524   -0.224238   -0.032231
C     0.190224    1.344270   -0.101779    0.021604   -0.383944    0.048659
O    -2.312006   -1.033969    0.129756    0.522844    0.091069   -0.053090
O     0.249917    2.534027   -0.197480    0.044488   -0.526636    0.033632
H     1.763122   -1.379721    0.054823   -0.741919    0.770805   -0.059394
H    -0.324225   -2.330272    0.186471   -0.189900    0.089425    0.000968
H    -1.780443    1.343841   -0.047069    0.479114   -0.156038    0.042963
H     2.267050    0.962579   -0.146586   -0.272874    0.121748   -0.078719
12
* Frequency(17)  784.4089
C     1.227136    0.614466   -0.080150   -0.322100    0.327533   -0.025165
C     0.860526   -0.646494    0.032291   -0.848608    0.585089   -0.001728
N    -0.243192   -1.318033    0.092167   -0.309952    0.089924   -0.038947
C    -1.201156   -0.535096    0.104133    0.348670    0.138829    0.095064
N    -0.940653    0.714513   -0.041457    0.400524   -0.224238   -0.032231
C     0.191910    1.314310   -0.097982    0.021604   -0.383944    0.048659
O    -2.271207   -1.026863    0.125613    0.522844    0.091069   -0.053090
O     0.253389    2.492931   -0.194856    0.044488   -0.526636    0.033632
H     1.705228   -1.319572    0.050188   -0.741919    0.770805   -0.059394
H    -0.339044   -2.323294    0.186547   -0.189900    0.089425    0.000968
H    -1.743056    1.331665   -0.043716    0.479114   -0.156038    0.042963
H     2.245756    0.972079   -0.152729   -0.272874    0.121748   -0.078719
12
* Frequency(17)  784.4089
C     1.212229    0.629625   -0.081315   -0.322100    0.327533   -0.025165
C     0.821251   -0.619415    0.032211   -0.848608    0.585089   -0.001728
N    -0.257537   -1.313871    0.090364   -0.309952    0.089924   -0.038947
C    -1.185019   -0.528671    0.108533    0.348670    0.138829    0.095064
N    -0.922116    0.704135   -0.042948    0.400524   -0.224238   -0.032231
C     0.192910    1.296540   -0.095730    0.021604   -0.383944    0.048659
O    -2.247009   -1.022648    0.123156    0.522844    0.091069   -0.053090
O     0.255448    2.468557   -0.193299    0.044488   -0.526636    0.033632
H     1.670890   -1.283898    0.047439   -0.741919    0.770805   -0.059394
H    -0.347833   -2.319156    0.186592   -0.189900    0.089425    0.000968
H    -1.720882    1.324443   -0.041728    0.479114   -0.156038    0.042963
H     2.233127    0.977714   -0.156372   -0.272874    0.121748   -0.078719
12
* Frequency(17)  784.4089
C     1.209164    0.632741   -0.081554   -0.322100    0.327533   -0.025165
C     0.813177   -0.613848    0.032194   -0.848608    0.585089   -0.001728
N    -0.260486   -1.313015    0.089993   -0.309952    0.089924   -0.038947
C    -1.181701   -0.527350    0.109437    0.348670    0.138829    0.095064
N    -0.918305    0.702001   -0.043255    0.400524   -0.224238   -0.032231
C     0.193115    1.292887   -0.095267    0.021604   -0.383944    0.048659
O    -2.242034   -1.021781    0.122651    0.522844    0.091069   -0.053090
O     0.255871    2.463547   -0.192979    0.044488   -0.526636    0.033632
H     1.663831   -1.276564    0.046874   -0.741919    0.770805   -0.059394
H    -0.349639   -2.318305    0.186601   -0.189900    0.089425    0.000968
H    -1.716324    1.322958   -0.041319    0.479114   -0.156038    0.042963
H     2.230531    0.978873   -0.157121   -0.272874    0.121748   -0.078719
12
* Frequency(17)  784.4089
C     1.218274    0.623477   -0.080843   -0.322100    0.327533   -0.025165
C     0.837179   -0.630397    0.032243   -0.848608    0.585089   -0.001728
N    -0.251719   -1.315559    0.091095   -0.309952    0.089924   -0.038947
C    -1.191563   -0.531276    0.106748    0.348670    0.138829    0.095064
N    -0.929634    0.708344   -0.042343    0.400524   -0.224238   -0.032231
C     0.192504    1.303746   -0.096644    0.021604   -0.383944    0.048659
O    -2.256822   -1.024357    0.124152    0.522844    0.091069   -0.053090
O     0.254613    2.478442   -0.193931    0.044488   -0.526636    0.033632
H     1.684816   -1.298365    0.048554   -0.741919    0.770805   -0.059394
H    -0.344268   -2.320834    0.186574   -0.189900    0.089425    0.000968
H    -1.729875    1.327372   -0.042534    0.479114   -0.156038    0.042963
H     2.238249    0.975429   -0.154894   -0.272874    0.121748   -0.078719
12
* Frequency(17)  784.4089
C     1.238572    0.602837   -0.079257   -0.322100    0.327533   -0.025165
C     0.890656   -0.667268    0.032352   -0.848608    0.585089   -0.001728
N    -0.232187   -1.321226    0.093549   -0.309952    0.089924   -0.038947
C    -1.213535   -0.540025    0.100758    0.348670    0.138829    0.095064
N    -0.954874    0.722474   -0.040312    0.400524   -0.224238   -0.032231
C     0.191143    1.327942   -0.099710    0.021604   -0.383944    0.048659
O    -2.289770   -1.030096    0.127498    0.522844    0.091069   -0.053090
O     0.251809    2.511629   -0.196050    0.044488   -0.526636    0.033632
H     1.731569   -1.346939    0.052297   -0.741919    0.770805   -0.059394
H    -0.332301   -2.326469    0.186513   -0.189900    0.089425    0.000968
H    -1.760067    1.337205   -0.045241    0.479114   -0.156038    0.042963
H     2.255445    0.967757   -0.149934   -0.272874    0.121748   -0.078719
12
* Frequency(17)  784.4089
C     1.267858    0.573057   -0.076969   -0.322100    0.327533   -0.025165
C     0.967813   -0.720465    0.032509   -0.848608    0.585089   -0.001728
N    -0.204006   -1.329402    0.097090   -0.309952    0.089924   -0.038947
C    -1.245237   -0.552648    0.092114    0.348670    0.138829    0.095064
N    -0.991290    0.742863   -0.037382    0.400524   -0.224238   -0.032231
C     0.189179    1.362851   -0.104134    0.021604   -0.383944    0.048659
O    -2.337308   -1.038376    0.132325    0.522844    0.091069   -0.053090
O     0.247764    2.559512   -0.199108    0.044488   -0.526636    0.033632
H     1.799026   -1.417022    0.057697   -0.741919    0.770805   -0.059394
H    -0.315035   -2.334600    0.186425   -0.189900    0.089425    0.000968
H    -1.803629    1.351392   -0.049148    0.479114   -0.156038    0.042963
H     2.280255    0.956687   -0.142776   -0.272874    0.121748   -0.078719
12
* Frequency(17)  784.4089
C     1.302958    0.537365   -0.074226   -0.322100    0.327533   -0.025165
C     1.060289   -0.784224    0.032698   -0.848608    0.585089   -0.001728
N    -0.170229   -1.339201    0.101335   -0.309952    0.089924   -0.038947
C    -1.283233   -0.567776    0.081755    0.348670    0.138829    0.095064
N    -1.034937    0.767298   -0.033869    0.400524   -0.224238   -0.032231
C     0.186824    1.404690   -0.109436    0.021604   -0.383944    0.048659
O    -2.394284   -1.048300    0.138110    0.522844    0.091069   -0.053090
O     0.242916    2.616901   -0.202773    0.044488   -0.526636    0.033632
H     1.879876   -1.501019    0.064169   -0.741919    0.770805   -0.059394
H    -0.294341   -2.344345    0.186319   -0.189900    0.089425    0.000968
H    -1.855840    1.368396   -0.053829    0.479114   -0.156038    0.042963
H     2.309991    0.943420   -0.134198   -0.272874    0.121748   -0.078719
12
* Frequency(17)  784.4089
C     1.340069    0.499628   -0.071327   -0.322100    0.327533   -0.025165
C     1.158062   -0.851636    0.032897   -0.848608    0.585089   -0.001728
N    -0.134518   -1.349562    0.105822   -0.309952    0.089924   -0.038947
C    -1.323405   -0.583772    0.070802    0.348670    0.138829    0.095064
N    -1.081084    0.793134   -0.030156    0.400524   -0.224238   -0.032231
C     0.184335    1.448927   -0.115043    0.021604   -0.383944    0.048659
O    -2.454524   -1.058793    0.144227    0.522844    0.091069   -0.053090
O     0.237791    2.677578   -0.206648    0.044488   -0.526636    0.033632
H     1.965357   -1.589829    0.071013   -0.741919    0.770805   -0.059394
H    -0.272462   -2.354648    0.186208   -0.189900    0.089425    0.000968
H    -1.911042    1.386374   -0.058779    0.479114   -0.156038    0.042963
H     2.341431    0.929392   -0.125128   -0.272874    0.121748   -0.078719
12
* Frequency(17)  784.4089
C     1.375170    0.463935   -0.068585   -0.322100    0.327533   -0.025165
C     1.250538   -0.915395    0.033085   -0.848608    0.585089   -0.001728
N    -0.100741   -1.359361    0.110066   -0.309952    0.089924   -0.038947
C    -1.361401   -0.598900    0.060442    0.348670    0.138829    0.095064
N    -1.124730    0.817570   -0.026643    0.400524   -0.224238   -0.032231
C     0.181981    1.490767   -0.120345    0.021604   -0.383944    0.048659
O    -2.511501   -1.068717    0.150013    0.522844    0.091069   -0.053090
O     0.232943    2.734968   -0.210313    0.044488   -0.526636    0.033632
H     2.046206   -1.673826    0.077485   -0.741919    0.770805   -0.059394
H    -0.251768   -2.364393    0.186102   -0.189900    0.089425    0.000968
H    -1.963252    1.403378   -0.063461    0.479114   -0.156038    0.042963
H     2.371167    0.916125   -0.116550   -0.272874    0.121748   -0.078719
12
* Frequency(17)  784.4089
C     1.404456    0.434156   -0.066297   -0.322100    0.327533   -0.025165
C     1.327695   -0.968593    0.033242   -0.848608    0.585089   -0.001728
N    -0.072560   -1.367537    0.113607   -0.309952    0.089924   -0.038947
C    -1.393103   -0.611523    0.051799    0.348670    0.138829    0.095064
N    -1.161147    0.837958   -0.023713    0.400524   -0.224238   -0.032231
C     0.180017    1.525675   -0.124769    0.021604   -0.383944    0.048659
O    -2.559039   -1.076997    0.154840    0.522844    0.091069   -0.053090
O     0.228898    2.782850   -0.213370    0.044488   -0.526636    0.033632
H     2.113663   -1.743909    0.082885   -0.741919    0.770805   -0.059394
H    -0.234502   -2.372524    0.186014   -0.189900    0.089425    0.000968
H    -2.006814    1.417566   -0.067367    0.479114   -0.156038    0.042963
H     2.395977    0.905056   -0.109393   -0.272874    0.121748   -0.078719
12
* Frequency(17)  784.4089
C     1.424753    0.413515   -0.064711   -0.322100    0.327533   -0.025165
C     1.381172   -1.005463    0.033351   -0.848608    0.585089   -0.001728
N    -0.053027   -1.373204    0.116062   -0.309952    0.089924   -0.038947
C    -1.415075   -0.620272    0.045808    0.348670    0.138829    0.095064
N    -1.186386    0.852089   -0.021682    0.400524   -0.224238   -0.032231
C     0.178655    1.549871   -0.127836    0.021604   -0.383944    0.048659
O    -2.591987   -1.082736    0.158185    0.522844    0.091069   -0.053090
O     0.226094    2.816038   -0.215490    0.044488   -0.526636    0.033632
H     2.160417   -1.792483    0.086628   -0.741919    0.770805   -0.059394
H    -0.222535   -2.378159    0.185953   -0.189900    0.089425    0.000968
H    -2.037007    1.427399   -0.070075    0.479114   -0.156038    0.042963
H     2.413173    0.897383   -0.104432   -0.272874    0.121748   -0.078719
12
* Frequency(17)  784.4089
C     1.433864    0.404251   -0.063999   -0.322100    0.327533   -0.025165
C     1.405174   -1.022012    0.033400   -0.848608    0.585089   -0.001728
N    -0.044261   -1.375747    0.117163   -0.309952    0.089924   -0.038947
C    -1.424937   -0.624198    0.043119    0.348670    0.138829    0.095064
N    -1.197715    0.858431   -0.020770    0.400524   -0.224238   -0.032231
C     0.178044    1.560730   -0.129212    0.021604   -0.383944    0.048659
O    -2.606775   -1.085312    0.159687    0.522844    0.091069   -0.053090
O     0.224836    2.830933   -0.216441    0.044488   -0.526636    0.033632
H     2.181401   -1.814284    0.088308   -0.741919    0.770805   -0.059394
H    -0.217164   -2.380688    0.185926   -0.189900    0.089425    0.000968
H    -2.050558    1.431812   -0.071290    0.479114   -0.156038    0.042963
H     2.420891    0.893940   -0.102206   -0.272874    0.121748   -0.078719
12
* Frequency(17)  784.4089
C     1.430799    0.407368   -0.064239   -0.322100    0.327533   -0.025165
C     1.397100   -1.016445    0.033383   -0.848608    0.585089   -0.001728
N    -0.047210   -1.374891    0.116793   -0.309952    0.089924   -0.038947
C    -1.421620   -0.622877    0.044024    0.348670    0.138829    0.095064
N    -1.193904    0.856298   -0.021077    0.400524   -0.224238   -0.032231
C     0.178250    1.557077   -0.128749    0.021604   -0.383944    0.048659
O    -2.601800   -1.084446    0.159182    0.522844    0.091069   -0.053090
O     0.225259    2.825922   -0.216121    0.044488   -0.526636    0.033632
H     2.174342   -1.806950    0.087743   -0.741919    0.770805   -0.059394
H    -0.218970   -2.379837    0.185935   -0.189900    0.089425    0.000968
H    -2.045999    1.430327   -0.070881    0.479114   -0.156038    0.042963
H     2.418294    0.895098   -0.102955   -0.272874    0.121748   -0.078719
12
* Frequency(17)  784.4089
C     1.415892    0.422527   -0.065403   -0.322100    0.327533   -0.025165
C     1.357824   -0.989366    0.033303   -0.848608    0.585089   -0.001728
N    -0.061555   -1.370730    0.114990   -0.309952    0.089924   -0.038947
C    -1.405482   -0.616452    0.048424    0.348670    0.138829    0.095064
N    -1.175367    0.845920   -0.022569    0.400524   -0.224238   -0.032231
C     0.179250    1.539307   -0.126497    0.021604   -0.383944    0.048659
O    -2.577602   -1.080231    0.156725    0.522844    0.091069   -0.053090
O     0.227318    2.801549   -0.214565    0.044488   -0.526636    0.033632
H     2.140005   -1.771276    0.084994   -0.741919    0.770805   -0.059394
H    -0.227759   -2.375699    0.185980   -0.189900    0.089425    0.000968
H    -2.023825    1.423106   -0.068893    0.479114   -0.156038    0.042963
H     2.405665    0.900733   -0.106598   -0.272874    0.121748   -0.078719
12
* Frequency(17)  784.4089
C     1.390757    0.448085   -0.067367   -0.322100    0.327533   -0.025165
C     1.291604   -0.943709    0.033169   -0.848608    0.585089   -0.001728
N    -0.085742   -1.363713    0.111951   -0.309952    0.089924   -0.038947
C    -1.378274   -0.605619    0.055842    0.348670    0.138829    0.095064
N    -1.144113    0.828422   -0.025084    0.400524   -0.224238   -0.032231
C     0.180936    1.509347   -0.122700    0.021604   -0.383944    0.048659
O    -2.536803   -1.073124    0.152582    0.522844    0.091069   -0.053090
O     0.230790    2.760453   -0.211940    0.044488   -0.526636    0.033632
H     2.082110   -1.711127    0.080359   -0.741919    0.770805   -0.059394
H    -0.242578   -2.368720    0.186055   -0.189900    0.089425    0.000968
H    -1.986438    1.410929   -0.065540    0.479114   -0.156038    0.042963
H     2.384372    0.910233   -0.112741   -0.272874    0.121748   -0.078719
12
* Frequency(17)  784.4089
C     1.358119    0.481274   -0.069917   -0.322100    0.327533   -0.025165
C     1.205615   -0.884422    0.032994   -0.848608    0.585089   -0.001728
N    -0.117149   -1.354601    0.108004   -0.309952    0.089924   -0.038947
C    -1.342944   -0.591551    0.065475    0.348670    0.138829    0.095064
N    -1.103528    0.805700   -0.028350    0.400524   -0.224238   -0.032231
C     0.183125    1.470442   -0.117769    0.021604   -0.383944    0.048659
O    -2.483823   -1.063896    0.147202    0.522844    0.091069   -0.053090
O     0.235298    2.707089   -0.208532    0.044488   -0.526636    0.033632
H     2.006931   -1.633022    0.074341   -0.741919    0.770805   -0.059394
H    -0.261820   -2.359659    0.186153   -0.189900    0.089425    0.000968
H    -1.937890    1.395118   -0.061187    0.479114   -0.156038    0.042963
H     2.356722    0.922570   -0.120717   -0.272874    0.121748   -0.078719
12
* Frequency(17)  784.4089
C     1.321514    0.518496   -0.072777   -0.322100    0.327533   -0.025165
C     1.109175   -0.817930    0.032797   -0.848608    0.585089   -0.001728
N    -0.152373   -1.344381    0.103578   -0.309952    0.089924   -0.038947
C    -1.303319   -0.575774    0.076278    0.348670    0.138829    0.095064
N    -1.058010    0.780216   -0.032013    0.400524   -0.224238   -0.032231
C     0.185580    1.426809   -0.112240    0.021604   -0.383944    0.048659
O    -2.424404   -1.053547    0.141169    0.522844    0.091069   -0.053090
O     0.240353    2.647240   -0.204710    0.044488   -0.526636    0.033632
H     1.922616   -1.545424    0.067591   -0.741919    0.770805   -0.059394
H    -0.283402   -2.349496    0.186263   -0.189900    0.089425    0.000968
H    -1.883441    1.377385   -0.056304    0.479114   -0.156038    0.042963
H     2.325711    0.936406   -0.129663   -0.272874    0.121748   -0.078719
