12
* (null), Energy   -1000.0000000
C     1.321514    0.518496   -0.072777   -0.022887    0.037007    0.111416
C     1.109175   -0.817930    0.032797   -0.077669    0.030873   -0.258163
N    -0.152373   -1.344381    0.103578   -0.013368    0.043771    0.480593
C    -1.303319   -0.575774    0.076278   -0.006052   -0.090871   -1.339226
N    -1.058010    0.780216   -0.032013    0.045790    0.016503    0.479574
C     0.185580    1.426809   -0.112240   -0.004968   -0.053620   -0.278404
O    -2.424404   -1.053547    0.141169    0.052449    0.037076    0.377176
O     0.240353    2.647240   -0.204710    0.005663   -0.039478    0.068397
H     1.922616   -1.545424    0.067591   -0.057251    0.081683    0.208134
H    -0.283402   -2.349496    0.186263   -0.014537    0.005745    0.001127
H    -1.883441    1.377385   -0.056304    0.024315   -0.060092   -0.595794
H     2.325711    0.936406   -0.129663    0.004081    0.086106    0.995807
12
* Frequency(16)  781.7337
C     1.318913    0.522702   -0.060115   -0.022887    0.037007    0.111416
C     1.100349   -0.814421    0.003458   -0.077669    0.030873   -0.258163
N    -0.153893   -1.339407    0.158195   -0.013368    0.043771    0.480593
C    -1.304007   -0.586101   -0.075918   -0.006052   -0.090871   -1.339226
N    -1.052806    0.782092    0.022488    0.045790    0.016503    0.479574
C     0.185015    1.420715   -0.143879   -0.004968   -0.053620   -0.278404
O    -2.418444   -1.049333    0.184033    0.052449    0.037076    0.377176
O     0.240997    2.642753   -0.196937    0.005663   -0.039478    0.068397
H     1.916110   -1.536141    0.091244   -0.057251    0.081683    0.208134
H    -0.285054   -2.348844    0.186391   -0.014537    0.005745    0.001127
H    -1.880678    1.370556   -0.124013    0.024315   -0.060092   -0.595794
H     2.326175    0.946192   -0.016495    0.004081    0.086106    0.995807
12
* Frequency(16)  781.7337
C     1.316594    0.526452   -0.048825   -0.022887    0.037007    0.111416
C     1.092479   -0.811293   -0.022701   -0.077669    0.030873   -0.258163
N    -0.155247   -1.334972    0.206893   -0.013368    0.043771    0.480593
C    -1.304620   -0.595309   -0.211621   -0.006052   -0.090871   -1.339226
N    -1.048166    0.783764    0.071084    0.045790    0.016503    0.479574
C     0.184512    1.415282   -0.172089   -0.004968   -0.053620   -0.278404
O    -2.413129   -1.045576    0.222252    0.052449    0.037076    0.377176
O     0.241571    2.638753   -0.190006    0.005663   -0.039478    0.068397
H     1.910309   -1.527864    0.112334   -0.057251    0.081683    0.208134
H    -0.286527   -2.348261    0.186506   -0.014537    0.005745    0.001127
H    -1.878214    1.364467   -0.184385    0.024315   -0.060092   -0.595794
H     2.326588    0.954917    0.084410    0.004081    0.086106    0.995807
12
* Frequency(16)  781.7337
C     1.314808    0.529340   -0.040131   -0.022887    0.037007    0.111416
C     1.086418   -0.808884   -0.042847   -0.077669    0.030873   -0.258163
N    -0.156290   -1.331556    0.244396   -0.013368    0.043771    0.480593
C    -1.305092   -0.602400   -0.316126   -0.006052   -0.090871   -1.339226
N    -1.044593    0.785052    0.108507    0.045790    0.016503    0.479574
C     0.184124    1.411097   -0.193814   -0.004968   -0.053620   -0.278404
O    -2.409037   -1.042683    0.251684    0.052449    0.037076    0.377176
O     0.242013    2.635673   -0.184669    0.005663   -0.039478    0.068397
H     1.905841   -1.521490    0.128576   -0.057251    0.081683    0.208134
H    -0.287661   -2.347813    0.186593   -0.014537    0.005745    0.001127
H    -1.876316    1.359778   -0.230877    0.024315   -0.060092   -0.595794
H     2.326906    0.961636    0.162116    0.004081    0.086106    0.995807
12
* Frequency(16)  781.7337
C     1.313748    0.531052   -0.034974   -0.022887    0.037007    0.111416
C     1.082823   -0.807455   -0.054795   -0.077669    0.030873   -0.258163
N    -0.156909   -1.329530    0.266639   -0.013368    0.043771    0.480593
C    -1.305372   -0.606606   -0.378108   -0.006052   -0.090871   -1.339226
N    -1.042474    0.785816    0.130702    0.045790    0.016503    0.479574
C     0.183894    1.408616   -0.206699   -0.004968   -0.053620   -0.278404
O    -2.406609   -1.040967    0.269141    0.052449    0.037076    0.377176
O     0.242275    2.633845   -0.181504    0.005663   -0.039478    0.068397
H     1.903192   -1.517710    0.138209   -0.057251    0.081683    0.208134
H    -0.288334   -2.347547    0.186646   -0.014537    0.005745    0.001127
H    -1.875191    1.356997   -0.258451    0.024315   -0.060092   -0.595794
H     2.327095    0.965621    0.208204    0.004081    0.086106    0.995807
12
* Frequency(16)  781.7337
C     1.313531    0.531404   -0.033914   -0.022887    0.037007    0.111416
C     1.082084   -0.807161   -0.057251   -0.077669    0.030873   -0.258163
N    -0.157036   -1.329114    0.271211   -0.013368    0.043771    0.480593
C    -1.305430   -0.607470   -0.390850   -0.006052   -0.090871   -1.339226
N    -1.042038    0.785973    0.135265    0.045790    0.016503    0.479574
C     0.183847    1.408106   -0.209348   -0.004968   -0.053620   -0.278404
O    -2.406110   -1.040614    0.272729    0.052449    0.037076    0.377176
O     0.242329    2.633470   -0.180853    0.005663   -0.039478    0.068397
H     1.902647   -1.516933    0.140189   -0.057251    0.081683    0.208134
H    -0.288472   -2.347493    0.186656   -0.014537    0.005745    0.001127
H    -1.874960    1.356425   -0.264120    0.024315   -0.060092   -0.595794
H     2.327134    0.966440    0.217679    0.004081    0.086106    0.995807
12
* Frequency(16)  781.7337
C     1.314178    0.530358   -0.037066   -0.022887    0.037007    0.111416
C     1.084281   -0.808035   -0.049949   -0.077669    0.030873   -0.258163
N    -0.156658   -1.330352    0.257618   -0.013368    0.043771    0.480593
C    -1.305259   -0.604900   -0.352971   -0.006052   -0.090871   -1.339226
N    -1.043333    0.785506    0.121701    0.045790    0.016503    0.479574
C     0.183987    1.409622   -0.201474   -0.004968   -0.053620   -0.278404
O    -2.407594   -1.041663    0.262061    0.052449    0.037076    0.377176
O     0.242169    2.634586   -0.182787    0.005663   -0.039478    0.068397
H     1.904266   -1.519243    0.134302   -0.057251    0.081683    0.208134
H    -0.288061   -2.347655    0.186624   -0.014537    0.005745    0.001127
H    -1.875647    1.358125   -0.247269    0.024315   -0.060092   -0.595794
H     2.327019    0.964005    0.189513    0.004081    0.086106    0.995807
12
* Frequency(16)  781.7337
C     1.315620    0.528026   -0.044087   -0.022887    0.037007    0.111416
C     1.089175   -0.809980   -0.033681   -0.077669    0.030873   -0.258163
N    -0.155816   -1.333110    0.227333   -0.013368    0.043771    0.480593
C    -1.304877   -0.599174   -0.268577   -0.006052   -0.090871   -1.339226
N    -1.046219    0.784466    0.091479    0.045790    0.016503    0.479574
C     0.184301    1.413001   -0.183930   -0.004968   -0.053620   -0.278404
O    -2.410899   -1.043999    0.238293    0.052449    0.037076    0.377176
O     0.241812    2.637074   -0.187098    0.005663   -0.039478    0.068397
H     1.907874   -1.524390    0.121186   -0.057251    0.081683    0.208134
H    -0.287145   -2.348017    0.186553   -0.014537    0.005745    0.001127
H    -1.877180    1.361911   -0.209723    0.024315   -0.060092   -0.595794
H     2.326762    0.958579    0.126760    0.004081    0.086106    0.995807
12
* Frequency(16)  781.7337
C     1.317701    0.524661   -0.054217   -0.022887    0.037007    0.111416
C     1.096237   -0.812787   -0.010208   -0.077669    0.030873   -0.258163
N    -0.154600   -1.337090    0.183636   -0.013368    0.043771    0.480593
C    -1.304327   -0.590911   -0.146812   -0.006052   -0.090871   -1.339226
N    -1.050382    0.782965    0.047876    0.045790    0.016503    0.479574
C     0.184752    1.417876   -0.158617   -0.004968   -0.053620   -0.278404
O    -2.415667   -1.047370    0.203999    0.052449    0.037076    0.377176
O     0.241297    2.640664   -0.193316    0.005663   -0.039478    0.068397
H     1.913079   -1.531817    0.102262   -0.057251    0.081683    0.208134
H    -0.285823   -2.348539    0.186451   -0.014537    0.005745    0.001127
H    -1.879390    1.367375   -0.155553    0.024315   -0.060092   -0.595794
H     2.326391    0.950750    0.036220    0.004081    0.086106    0.995807
12
* Frequency(16)  781.7337
C     1.320195    0.520628   -0.066358   -0.022887    0.037007    0.111416
C     1.104701   -0.816152    0.017925   -0.077669    0.030873   -0.258163
N    -0.153144   -1.341860    0.131264   -0.013368    0.043771    0.480593
C    -1.303668   -0.581009   -0.000872   -0.006052   -0.090871   -1.339226
N    -1.055372    0.781167   -0.004385    0.045790    0.016503    0.479574
C     0.185294    1.423720   -0.128278   -0.004968   -0.053620   -0.278404
O    -2.421383   -1.051411    0.162897    0.052449    0.037076    0.377176
O     0.240680    2.644966   -0.200770    0.005663   -0.039478    0.068397
H     1.919318   -1.540718    0.079581   -0.057251    0.081683    0.208134
H    -0.284239   -2.349166    0.186328   -0.014537    0.005745    0.001127
H    -1.882040    1.373923   -0.090627    0.024315   -0.060092   -0.595794
H     2.325946    0.941367   -0.072297    0.004081    0.086106    0.995807
12
* Frequency(16)  781.7337
C     1.322832    0.516364   -0.079195   -0.022887    0.037007    0.111416
C     1.113650   -0.819709    0.047669   -0.077669    0.030873   -0.258163
N    -0.151603   -1.346903    0.075892   -0.013368    0.043771    0.480593
C    -1.302970   -0.570539    0.153429   -0.006052   -0.090871   -1.339226
N    -1.060648    0.779266   -0.059640    0.045790    0.016503    0.479574
C     0.185866    1.429897   -0.096201   -0.004968   -0.053620   -0.278404
O    -2.427426   -1.055683    0.119440    0.052449    0.037076    0.377176
O     0.240027    2.649514   -0.208650    0.005663   -0.039478    0.068397
H     1.925914   -1.550130    0.055601   -0.057251    0.081683    0.208134
H    -0.282564   -2.349827    0.186198   -0.014537    0.005745    0.001127
H    -1.884841    1.380847   -0.021982    0.024315   -0.060092   -0.595794
H     2.325476    0.931446   -0.187030    0.004081    0.086106    0.995807
12
* Frequency(16)  781.7337
C     1.325326    0.512332   -0.091337   -0.022887    0.037007    0.111416
C     1.122113   -0.823073    0.075802   -0.077669    0.030873   -0.258163
N    -0.150147   -1.351673    0.023520   -0.013368    0.043771    0.480593
C    -1.302311   -0.560637    0.299369   -0.006052   -0.090871   -1.339226
N    -1.065638    0.777467   -0.111901    0.045790    0.016503    0.479574
C     0.186407    1.435741   -0.065863   -0.004968   -0.053620   -0.278404
O    -2.433141   -1.059723    0.078338    0.052449    0.037076    0.377176
O     0.239410    2.653816   -0.216104    0.005663   -0.039478    0.068397
H     1.932153   -1.559031    0.032920   -0.057251    0.081683    0.208134
H    -0.280980   -2.350453    0.186076   -0.014537    0.005745    0.001127
H    -1.887491    1.387395    0.042944    0.024315   -0.060092   -0.595794
H     2.325031    0.922063   -0.295546    0.004081    0.086106    0.995807
12
* Frequency(16)  781.7337
C     1.327407    0.508967   -0.101467   -0.022887    0.037007    0.111416
C     1.129175   -0.825880    0.099275   -0.077669    0.030873   -0.258163
N    -0.148931   -1.355652   -0.020176   -0.013368    0.043771    0.480593
C    -1.301761   -0.552374    0.421133   -0.006052   -0.090871   -1.339226
N    -1.069801    0.775967   -0.155505    0.045790    0.016503    0.479574
C     0.186859    1.440616   -0.040550   -0.004968   -0.053620   -0.278404
O    -2.437910   -1.063094    0.044045    0.052449    0.037076    0.377176
O     0.238895    2.657406   -0.222323    0.005663   -0.039478    0.068397
H     1.937358   -1.566458    0.013996   -0.057251    0.081683    0.208134
H    -0.279658   -2.350976    0.185973   -0.014537    0.005745    0.001127
H    -1.889702    1.392859    0.097115    0.024315   -0.060092   -0.595794
H     2.324660    0.914234   -0.386087    0.004081    0.086106    0.995807
12
* Frequency(16)  781.7337
C     1.328850    0.506635   -0.108488   -0.022887    0.037007    0.111416
C     1.134070   -0.827826    0.115544   -0.077669    0.030873   -0.258163
N    -0.148089   -1.358411   -0.050461   -0.013368    0.043771    0.480593
C    -1.301379   -0.546648    0.505528   -0.006052   -0.090871   -1.339226
N    -1.072687    0.774927   -0.185726    0.045790    0.016503    0.479574
C     0.187172    1.443995   -0.023005   -0.004968   -0.053620   -0.278404
O    -2.441215   -1.065430    0.020276    0.052449    0.037076    0.377176
O     0.238538    2.659893   -0.226633    0.005663   -0.039478    0.068397
H     1.940966   -1.571605    0.000880   -0.057251    0.081683    0.208134
H    -0.278742   -2.351338    0.185902   -0.014537    0.005745    0.001127
H    -1.891234    1.396646    0.134660    0.024315   -0.060092   -0.595794
H     2.324403    0.908807   -0.448840    0.004081    0.086106    0.995807
12
* Frequency(16)  781.7337
C     1.329497    0.505588   -0.111639   -0.022887    0.037007    0.111416
C     1.136266   -0.828699    0.122846   -0.077669    0.030873   -0.258163
N    -0.147711   -1.359649   -0.064055   -0.013368    0.043771    0.480593
C    -1.301208   -0.544078    0.543406   -0.006052   -0.090871   -1.339226
N    -1.073982    0.774460   -0.199290    0.045790    0.016503    0.479574
C     0.187313    1.445511   -0.015131   -0.004968   -0.053620   -0.278404
O    -2.442699   -1.066479    0.009608    0.052449    0.037076    0.377176
O     0.238378    2.661010   -0.228568    0.005663   -0.039478    0.068397
H     1.942585   -1.573915   -0.005007   -0.057251    0.081683    0.208134
H    -0.278331   -2.351500    0.185870   -0.014537    0.005745    0.001127
H    -1.891922    1.398345    0.151511    0.024315   -0.060092   -0.595794
H     2.324287    0.906372   -0.477005    0.004081    0.086106    0.995807
12
* Frequency(16)  781.7337
C     1.329279    0.505940   -0.110579   -0.022887    0.037007    0.111416
C     1.135527   -0.828405    0.120389   -0.077669    0.030873   -0.258163
N    -0.147838   -1.359232   -0.059482   -0.013368    0.043771    0.480593
C    -1.301266   -0.544942    0.530664   -0.006052   -0.090871   -1.339226
N    -1.073546    0.774617   -0.194727    0.045790    0.016503    0.479574
C     0.187265    1.445001   -0.017780   -0.004968   -0.053620   -0.278404
O    -2.442200   -1.066126    0.013197    0.052449    0.037076    0.377176
O     0.238432    2.660634   -0.227917    0.005663   -0.039478    0.068397
H     1.942041   -1.573138   -0.003027   -0.057251    0.081683    0.208134
H    -0.278469   -2.351446    0.185881   -0.014537    0.005745    0.001127
H    -1.891690    1.397774    0.145843    0.024315   -0.060092   -0.595794
H     2.324326    0.907191   -0.467531    0.004081    0.086106    0.995807
12
* Frequency(16)  781.7337
C     1.328220    0.507653   -0.105423   -0.022887    0.037007    0.111416
C     1.131933   -0.826976    0.108441   -0.077669    0.030873   -0.258163
N    -0.148456   -1.357206   -0.037239   -0.013368    0.043771    0.480593
C    -1.301546   -0.549148    0.468683   -0.006052   -0.090871   -1.339226
N    -1.071427    0.775381   -0.172532    0.045790    0.016503    0.479574
C     0.187035    1.442520   -0.030665   -0.004968   -0.053620   -0.278404
O    -2.439772   -1.064410    0.030653    0.052449    0.037076    0.377176
O     0.238694    2.658807   -0.224751    0.005663   -0.039478    0.068397
H     1.939391   -1.569358    0.006606   -0.057251    0.081683    0.208134
H    -0.279142   -2.351180    0.185933   -0.014537    0.005745    0.001127
H    -1.890565    1.394992    0.118268    0.024315   -0.060092   -0.595794
H     2.324515    0.911176   -0.421443    0.004081    0.086106    0.995807
12
* Frequency(16)  781.7337
C     1.326434    0.510541   -0.096728   -0.022887    0.037007    0.111416
C     1.125872   -0.824567    0.088296   -0.077669    0.030873   -0.258163
N    -0.149500   -1.353791    0.000263   -0.013368    0.043771    0.480593
C    -1.302018   -0.556239    0.364178   -0.006052   -0.090871   -1.339226
N    -1.067854    0.776669   -0.135109    0.045790    0.016503    0.479574
C     0.186648    1.438335   -0.052390   -0.004968   -0.053620   -0.278404
O    -2.435680   -1.061517    0.060086    0.052449    0.037076    0.377176
O     0.239136    2.655727   -0.219414    0.005663   -0.039478    0.068397
H     1.934924   -1.562984    0.022847   -0.057251    0.081683    0.208134
H    -0.280276   -2.350731    0.186021   -0.014537    0.005745    0.001127
H    -1.888668    1.390303    0.071776    0.024315   -0.060092   -0.595794
H     2.324834    0.917896   -0.343736    0.004081    0.086106    0.995807
12
* Frequency(16)  781.7337
C     1.324115    0.514291   -0.085439   -0.022887    0.037007    0.111416
C     1.118002   -0.821439    0.062136   -0.077669    0.030873   -0.258163
N    -0.150854   -1.349356    0.048962   -0.013368    0.043771    0.480593
C    -1.302631   -0.565447    0.228474   -0.006052   -0.090871   -1.339226
N    -1.063214    0.778341   -0.086514    0.045790    0.016503    0.479574
C     0.186144    1.432902   -0.080600   -0.004968   -0.053620   -0.278404
O    -2.430365   -1.057760    0.098305    0.052449    0.037076    0.377176
O     0.239710    2.651726   -0.212483    0.005663   -0.039478    0.068397
H     1.929122   -1.554707    0.043938   -0.057251    0.081683    0.208134
H    -0.281749   -2.350149    0.186135   -0.014537    0.005745    0.001127
H    -1.886204    1.384214    0.011404    0.024315   -0.060092   -0.595794
H     2.325247    0.926621   -0.242832    0.004081    0.086106    0.995807
12
* Frequency(16)  781.7337
C     1.321514    0.518496   -0.072777   -0.022887    0.037007    0.111416
C     1.109175   -0.817930    0.032797   -0.077669    0.030873   -0.258163
N    -0.152373   -1.344381    0.103578   -0.013368    0.043771    0.480593
C    -1.303319   -0.575774    0.076278   -0.006052   -0.090871   -1.339226
N    -1.058010    0.780216   -0.032013    0.045790    0.016503    0.479574
C     0.185580    1.426809   -0.112240   -0.004968   -0.053620   -0.278404
O    -2.424404   -1.053547    0.141169    0.052449    0.037076    0.377176
O     0.240353    2.647240   -0.204710    0.005663   -0.039478    0.068397
H     1.922616   -1.545424    0.067591   -0.057251    0.081683    0.208134
H    -0.283402   -2.349496    0.186263   -0.014537    0.005745    0.001127
H    -1.883441    1.377385   -0.056304    0.024315   -0.060092   -0.595794
H     2.325711    0.936406   -0.129663    0.004081    0.086106    0.995807
