12
* (null), Energy   -1000.0000000
C     1.321514    0.518496   -0.072777   -0.229253    0.157235   -0.006068
C     1.109175   -0.817930    0.032797    0.439211    0.040199   -0.013633
N    -0.152373   -1.344381    0.103578   -0.560030   -0.014020    0.015016
C    -1.303319   -0.575774    0.076278   -0.045333   -0.086425    0.007330
N    -1.058010    0.780216   -0.032013   -0.149114   -0.071898    0.009259
C     0.185580    1.426809   -0.112240    0.276820    0.053444   -0.010957
O    -2.424404   -1.053547    0.141169    0.200013    0.068708   -0.010380
O     0.240353    2.647240   -0.204710   -0.025510   -0.052858    0.004597
H     1.922616   -1.545424    0.067591    0.060942   -0.450900    0.031911
H    -0.283402   -2.349496    0.186263    1.597084   -0.294335   -0.015630
H    -1.883441    1.377385   -0.056304    0.109760    0.281702   -0.023719
H     2.325711    0.936406   -0.129663    0.056540   -0.553711    0.039874
12
* Frequency(28) 1506.5677
C     1.295460    0.536365   -0.073466   -0.229253    0.157235   -0.006068
C     1.159089   -0.813362    0.031248    0.439211    0.040199   -0.013633
N    -0.216018   -1.345974    0.105285   -0.560030   -0.014020    0.015016
C    -1.308471   -0.585596    0.077111   -0.045333   -0.086425    0.007330
N    -1.074956    0.772046   -0.030960   -0.149114   -0.071898    0.009259
C     0.217039    1.432882   -0.113485    0.276820    0.053444   -0.010957
O    -2.401674   -1.045738    0.139989    0.200013    0.068708   -0.010380
O     0.237454    2.641233   -0.204188   -0.025510   -0.052858    0.004597
H     1.929542   -1.596666    0.071217    0.060942   -0.450900    0.031911
H    -0.101901   -2.382946    0.184487    1.597084   -0.294335   -0.015630
H    -1.870967    1.409399   -0.059000    0.109760    0.281702   -0.023719
H     2.332136    0.873480   -0.125132    0.056540   -0.553711    0.039874
12
* Frequency(28) 1506.5677
C     1.272230    0.552298   -0.074081   -0.229253    0.157235   -0.006068
C     1.203594   -0.809288    0.029866    0.439211    0.040199   -0.013633
N    -0.272766   -1.347395    0.106806   -0.560030   -0.014020    0.015016
C    -1.313065   -0.594353    0.077854   -0.045333   -0.086425    0.007330
N    -1.090066    0.764760   -0.030022   -0.149114   -0.071898    0.009259
C     0.245089    1.438298   -0.114595    0.276820    0.053444   -0.010957
O    -2.381407   -1.038776    0.138937    0.200013    0.068708   -0.010380
O     0.234869    2.635877   -0.203722   -0.025510   -0.052858    0.004597
H     1.935717   -1.642356    0.074451    0.060942   -0.450900    0.031911
H     0.059931   -2.412771    0.182903    1.597084   -0.294335   -0.015630
H    -1.859845    1.437944   -0.061404    0.109760    0.281702   -0.023719
H     2.337866    0.817373   -0.121091    0.056540   -0.553711    0.039874
12
* Frequency(28) 1506.5677
C     1.254341    0.564567   -0.074555   -0.229253    0.157235   -0.006068
C     1.237868   -0.806151    0.028802    0.439211    0.040199   -0.013633
N    -0.316467   -1.348489    0.107978   -0.560030   -0.014020    0.015016
C    -1.316602   -0.601097    0.078426   -0.045333   -0.086425    0.007330
N    -1.101702    0.759150   -0.029300   -0.149114   -0.071898    0.009259
C     0.266690    1.442468   -0.115450    0.276820    0.053444   -0.010957
O    -2.365799   -1.033415    0.138127    0.200013    0.068708   -0.010380
O     0.232879    2.631752   -0.203363   -0.025510   -0.052858    0.004597
H     1.940473   -1.677541    0.076941    0.060942   -0.450900    0.031911
H     0.184557   -2.435739    0.181683    1.597084   -0.294335   -0.015630
H    -1.851280    1.459926   -0.063254    0.109760    0.281702   -0.023719
H     2.342278    0.774164   -0.117980    0.056540   -0.553711    0.039874
12
* Frequency(28) 1506.5677
C     1.243731    0.571844   -0.074836   -0.229253    0.157235   -0.006068
C     1.258195   -0.804291    0.028172    0.439211    0.040199   -0.013633
N    -0.342386   -1.349138    0.108673   -0.560030   -0.014020    0.015016
C    -1.318700   -0.605097    0.078765   -0.045333   -0.086425    0.007330
N    -1.108603    0.755822   -0.028871   -0.149114   -0.071898    0.009259
C     0.279502    1.444942   -0.115957    0.276820    0.053444   -0.010957
O    -2.356542   -1.030235    0.137647    0.200013    0.068708   -0.010380
O     0.231698    2.629306   -0.203151   -0.025510   -0.052858    0.004597
H     1.943293   -1.698410    0.078418    0.060942   -0.450900    0.031911
H     0.258473   -2.449361    0.180960    1.597084   -0.294335   -0.015630
H    -1.846200    1.472964   -0.064352    0.109760    0.281702   -0.023719
H     2.344894    0.748538   -0.116134    0.056540   -0.553711    0.039874
12
* Frequency(28) 1506.5677
C     1.241549    0.573341   -0.074893   -0.229253    0.157235   -0.006068
C     1.262374   -0.803908    0.028042    0.439211    0.040199   -0.013633
N    -0.347715   -1.349271    0.108816   -0.560030   -0.014020    0.015016
C    -1.319132   -0.605920    0.078835   -0.045333   -0.086425    0.007330
N    -1.110022    0.755138   -0.028783   -0.149114   -0.071898    0.009259
C     0.282136    1.445450   -0.116061    0.276820    0.053444   -0.010957
O    -2.354639   -1.029581    0.137548    0.200013    0.068708   -0.010380
O     0.231455    2.628803   -0.203107   -0.025510   -0.052858    0.004597
H     1.943873   -1.702700    0.078722    0.060942   -0.450900    0.031911
H     0.273669   -2.452162    0.180811    1.597084   -0.294335   -0.015630
H    -1.845156    1.475644   -0.064578    0.109760    0.281702   -0.023719
H     2.345432    0.743269   -0.115755    0.056540   -0.553711    0.039874
12
* Frequency(28) 1506.5677
C     1.248034    0.568893   -0.074722   -0.229253    0.157235   -0.006068
C     1.249952   -0.805045    0.028427    0.439211    0.040199   -0.013633
N    -0.331875   -1.348875    0.108391   -0.560030   -0.014020    0.015016
C    -1.317849   -0.603475    0.078628   -0.045333   -0.086425    0.007330
N    -1.105804    0.757172   -0.029045   -0.149114   -0.071898    0.009259
C     0.274306    1.443938   -0.115751    0.276820    0.053444   -0.010957
O    -2.360296   -1.031524    0.137842    0.200013    0.068708   -0.010380
O     0.232177    2.630298   -0.203237   -0.025510   -0.052858    0.004597
H     1.942150   -1.689947    0.077819    0.060942   -0.450900    0.031911
H     0.228497   -2.443837    0.181253    1.597084   -0.294335   -0.015630
H    -1.848260    1.467676   -0.063907    0.109760    0.281702   -0.023719
H     2.343833    0.758930   -0.116883    0.056540   -0.553711    0.039874
12
* Frequency(28) 1506.5677
C     1.262480    0.558985   -0.074339   -0.229253    0.157235   -0.006068
C     1.222274   -0.807579    0.029287    0.439211    0.040199   -0.013633
N    -0.296583   -1.347991    0.107445   -0.560030   -0.014020    0.015016
C    -1.314993   -0.598029    0.078166   -0.045333   -0.086425    0.007330
N    -1.096408    0.761702   -0.029628   -0.149114   -0.071898    0.009259
C     0.256862    1.440571   -0.115061    0.276820    0.053444   -0.010957
O    -2.372900   -1.035854    0.138496    0.200013    0.068708   -0.010380
O     0.233785    2.633629   -0.203527   -0.025510   -0.052858    0.004597
H     1.938309   -1.661532    0.075808    0.060942   -0.450900    0.031911
H     0.127853   -2.425289    0.182238    1.597084   -0.294335   -0.015630
H    -1.855177    1.449924   -0.062412    0.109760    0.281702   -0.023719
H     2.340270    0.793824   -0.119395    0.056540   -0.553711    0.039874
12
* Frequency(28) 1506.5677
C     1.283325    0.544689   -0.073788   -0.229253    0.157235   -0.006068
C     1.182340   -0.811234    0.030526    0.439211    0.040199   -0.013633
N    -0.245664   -1.346717    0.106080   -0.560030   -0.014020    0.015016
C    -1.310871   -0.590171    0.077499   -0.045333   -0.086425    0.007330
N    -1.082850    0.768240   -0.030470   -0.149114   -0.071898    0.009259
C     0.231693    1.435711   -0.114065    0.276820    0.053444   -0.010957
O    -2.391086   -1.042101    0.139440    0.200013    0.068708   -0.010380
O     0.236104    2.638435   -0.203944   -0.025510   -0.052858    0.004597
H     1.932768   -1.620536    0.072907    0.060942   -0.450900    0.031911
H    -0.017357   -2.398527    0.183660    1.597084   -0.294335   -0.015630
H    -1.865157    1.424311   -0.060256    0.109760    0.281702   -0.023719
H     2.335129    0.844168   -0.123021    0.056540   -0.553711    0.039874
12
* Frequency(28) 1506.5677
C     1.308307    0.527554   -0.073126   -0.229253    0.157235   -0.006068
C     1.134477   -0.815614    0.032012    0.439211    0.040199   -0.013633
N    -0.184636   -1.345189    0.104443   -0.560030   -0.014020    0.015016
C    -1.305931   -0.580753    0.076701   -0.045333   -0.086425    0.007330
N    -1.066600    0.776074   -0.031479   -0.149114   -0.071898    0.009259
C     0.201527    1.429887   -0.112871    0.276820    0.053444   -0.010957
O    -2.412882   -1.049589    0.140571    0.200013    0.068708   -0.010380
O     0.238884    2.644195   -0.204445   -0.025510   -0.052858    0.004597
H     1.926127   -1.571399    0.069429    0.060942   -0.450900    0.031911
H    -0.191397   -2.366453    0.185363    1.597084   -0.294335   -0.015630
H    -1.877118    1.393613   -0.057671    0.109760    0.281702   -0.023719
H     2.328968    0.904508   -0.127366    0.056540   -0.553711    0.039874
12
* Frequency(28) 1506.5677
C     1.334721    0.509438   -0.072427   -0.229253    0.157235   -0.006068
C     1.083873   -0.820246    0.033583    0.439211    0.040199   -0.013633
N    -0.120111   -1.343574    0.102713   -0.560030   -0.014020    0.015016
C    -1.300708   -0.570795    0.075856   -0.045333   -0.086425    0.007330
N    -1.049420    0.784358   -0.032546   -0.149114   -0.071898    0.009259
C     0.169633    1.423730   -0.111608    0.276820    0.053444   -0.010957
O    -2.435927   -1.057505    0.141767    0.200013    0.068708   -0.010380
O     0.241823    2.650285   -0.204975   -0.025510   -0.052858    0.004597
H     1.919105   -1.519448    0.065753    0.060942   -0.450900    0.031911
H    -0.375407   -2.332540    0.187164    1.597084   -0.294335   -0.015630
H    -1.889764    1.361157   -0.054938    0.109760    0.281702   -0.023719
H     2.322454    0.968304   -0.131960    0.056540   -0.553711    0.039874
12
* Frequency(28) 1506.5677
C     1.359703    0.492304   -0.071766   -0.229253    0.157235   -0.006068
C     1.036011   -0.824626    0.035068    0.439211    0.040199   -0.013633
N    -0.059083   -1.342046    0.101077   -0.560030   -0.014020    0.015016
C    -1.295767   -0.561377    0.075057   -0.045333   -0.086425    0.007330
N    -1.033170    0.792193   -0.033555   -0.149114   -0.071898    0.009259
C     0.139467    1.417906   -0.110414    0.276820    0.053444   -0.010957
O    -2.457723   -1.064992    0.142898    0.200013    0.068708   -0.010380
O     0.244603    2.656045   -0.205476   -0.025510   -0.052858    0.004597
H     1.912464   -1.470312    0.062275    0.060942   -0.450900    0.031911
H    -0.549446   -2.300466    0.188867    1.597084   -0.294335   -0.015630
H    -1.901725    1.330459   -0.052353    0.109760    0.281702   -0.023719
H     2.316292    1.028644   -0.136306    0.056540   -0.553711    0.039874
12
* Frequency(28) 1506.5677
C     1.380547    0.478008   -0.071214   -0.229253    0.157235   -0.006068
C     0.996077   -0.828281    0.036308    0.439211    0.040199   -0.013633
N    -0.008164   -1.340771    0.099712   -0.560030   -0.014020    0.015016
C    -1.291646   -0.553519    0.074391   -0.045333   -0.086425    0.007330
N    -1.019613    0.798730   -0.034397   -0.149114   -0.071898    0.009259
C     0.114298    1.413047   -0.109418    0.276820    0.053444   -0.010957
O    -2.475908   -1.071239    0.143842    0.200013    0.068708   -0.010380
O     0.246922    2.660851   -0.205894   -0.025510   -0.052858    0.004597
H     1.906923   -1.429316    0.059374    0.060942   -0.450900    0.031911
H    -0.694656   -2.273704    0.190288    1.597084   -0.294335   -0.015630
H    -1.911704    1.304846   -0.050197    0.109760    0.281702   -0.023719
H     2.311151    1.078989   -0.139931    0.056540   -0.553711    0.039874
12
* Frequency(28) 1506.5677
C     1.394994    0.468099   -0.070832   -0.229253    0.157235   -0.006068
C     0.968399   -0.830815    0.037167    0.439211    0.040199   -0.013633
N     0.027128   -1.339888    0.098765   -0.560030   -0.014020    0.015016
C    -1.288789   -0.548073    0.073929   -0.045333   -0.086425    0.007330
N    -1.010216    0.803261   -0.034980   -0.149114   -0.071898    0.009259
C     0.096853    1.409679   -0.108728    0.276820    0.053444   -0.010957
O    -2.488513   -1.075569    0.144496    0.200013    0.068708   -0.010380
O     0.248530    2.664182   -0.206184   -0.025510   -0.052858    0.004597
H     1.903083   -1.400901    0.057363    0.060942   -0.450900    0.031911
H    -0.795300   -2.255156    0.191273    1.597084   -0.294335   -0.015630
H    -1.918621    1.287094   -0.048702    0.109760    0.281702   -0.023719
H     2.307588    1.113882   -0.142444    0.056540   -0.553711    0.039874
12
* Frequency(28) 1506.5677
C     1.401478    0.463652   -0.070660   -0.229253    0.157235   -0.006068
C     0.955976   -0.831952    0.037553    0.439211    0.040199   -0.013633
N     0.042968   -1.339491    0.098341   -0.560030   -0.014020    0.015016
C    -1.287507   -0.545628    0.073721   -0.045333   -0.086425    0.007330
N    -1.005998    0.805295   -0.035242   -0.149114   -0.071898    0.009259
C     0.089024    1.408167   -0.108418    0.276820    0.053444   -0.010957
O    -2.494170   -1.077512    0.144789    0.200013    0.068708   -0.010380
O     0.249251    2.665677   -0.206314   -0.025510   -0.052858    0.004597
H     1.901359   -1.388148    0.056460    0.060942   -0.450900    0.031911
H    -0.840472   -2.246831    0.191715    1.597084   -0.294335   -0.015630
H    -1.921726    1.279126   -0.048031    0.109760    0.281702   -0.023719
H     2.305989    1.129543   -0.143572    0.056540   -0.553711    0.039874
12
* Frequency(28) 1506.5677
C     1.399297    0.465148   -0.070718   -0.229253    0.157235   -0.006068
C     0.960155   -0.831569    0.037423    0.439211    0.040199   -0.013633
N     0.037639   -1.339624    0.098484   -0.560030   -0.014020    0.015016
C    -1.287938   -0.546451    0.073791   -0.045333   -0.086425    0.007330
N    -1.007417    0.804611   -0.035154   -0.149114   -0.071898    0.009259
C     0.091658    1.408676   -0.108522    0.276820    0.053444   -0.010957
O    -2.492267   -1.076859    0.144691    0.200013    0.068708   -0.010380
O     0.249009    2.665174   -0.206270   -0.025510   -0.052858    0.004597
H     1.901939   -1.392438    0.056764    0.060942   -0.450900    0.031911
H    -0.825276   -2.249632    0.191567    1.597084   -0.294335   -0.015630
H    -1.920681    1.281807   -0.048257    0.109760    0.281702   -0.023719
H     2.306527    1.124275   -0.143192    0.056540   -0.553711    0.039874
12
* Frequency(28) 1506.5677
C     1.388687    0.472425   -0.070999   -0.229253    0.157235   -0.006068
C     0.980483   -0.829709    0.036792    0.439211    0.040199   -0.013633
N     0.011720   -1.340273    0.099179   -0.560030   -0.014020    0.015016
C    -1.290036   -0.550451    0.074130   -0.045333   -0.086425    0.007330
N    -1.014318    0.801283   -0.034726   -0.149114   -0.071898    0.009259
C     0.104469    1.411149   -0.109029    0.276820    0.053444   -0.010957
O    -2.483010   -1.073679    0.144210    0.200013    0.068708   -0.010380
O     0.247828    2.662728   -0.206057   -0.025510   -0.052858    0.004597
H     1.904760   -1.413307    0.058241    0.060942   -0.450900    0.031911
H    -0.751360   -2.263254    0.190843    1.597084   -0.294335   -0.015630
H    -1.915601    1.294844   -0.049354    0.109760    0.281702   -0.023719
H     2.309144    1.098648   -0.141347    0.056540   -0.553711    0.039874
12
* Frequency(28) 1506.5677
C     1.370797    0.484695   -0.071472   -0.229253    0.157235   -0.006068
C     1.014756   -0.826572    0.035728    0.439211    0.040199   -0.013633
N    -0.031981   -1.341367    0.100350   -0.560030   -0.014020    0.015016
C    -1.293574   -0.557195    0.074702   -0.045333   -0.086425    0.007330
N    -1.025954    0.795673   -0.034003   -0.149114   -0.071898    0.009259
C     0.126071    1.415319   -0.109884    0.276820    0.053444   -0.010957
O    -2.467402   -1.068317    0.143400    0.200013    0.068708   -0.010380
O     0.245837    2.658603   -0.205698   -0.025510   -0.052858    0.004597
H     1.909515   -1.448492    0.060731    0.060942   -0.450900    0.031911
H    -0.626734   -2.286222    0.189623    1.597084   -0.294335   -0.015630
H    -1.907036    1.316826   -0.051205    0.109760    0.281702   -0.023719
H     2.313556    1.055440   -0.138235    0.056540   -0.553711    0.039874
12
* Frequency(28) 1506.5677
C     1.347567    0.500627   -0.072087   -0.229253    0.157235   -0.006068
C     1.059261   -0.822498    0.034347    0.439211    0.040199   -0.013633
N    -0.088729   -1.342788    0.101872   -0.560030   -0.014020    0.015016
C    -1.298167   -0.565952    0.075445   -0.045333   -0.086425    0.007330
N    -1.041064    0.788387   -0.033065   -0.149114   -0.071898    0.009259
C     0.154121    1.420735   -0.110994    0.276820    0.053444   -0.010957
O    -2.447135   -1.061355    0.142348    0.200013    0.068708   -0.010380
O     0.243253    2.653247   -0.205233   -0.025510   -0.052858    0.004597
H     1.915690   -1.494182    0.063964    0.060942   -0.450900    0.031911
H    -0.464902   -2.316047    0.188040    1.597084   -0.294335   -0.015630
H    -1.895914    1.345371   -0.053609    0.109760    0.281702   -0.023719
H     2.319285    0.999333   -0.134195    0.056540   -0.553711    0.039874
12
* Frequency(28) 1506.5677
C     1.321514    0.518496   -0.072777   -0.229253    0.157235   -0.006068
C     1.109175   -0.817930    0.032797    0.439211    0.040199   -0.013633
N    -0.152373   -1.344381    0.103578   -0.560030   -0.014020    0.015016
C    -1.303319   -0.575774    0.076278   -0.045333   -0.086425    0.007330
N    -1.058010    0.780216   -0.032013   -0.149114   -0.071898    0.009259
C     0.185580    1.426809   -0.112240    0.276820    0.053444   -0.010957
O    -2.424404   -1.053547    0.141169    0.200013    0.068708   -0.010380
O     0.240353    2.647240   -0.204710   -0.025510   -0.052858    0.004597
H     1.922616   -1.545424    0.067591    0.060942   -0.450900    0.031911
H    -0.283402   -2.349496    0.186263    1.597084   -0.294335   -0.015630
H    -1.883441    1.377385   -0.056304    0.109760    0.281702   -0.023719
H     2.325711    0.936406   -0.129663    0.056540   -0.553711    0.039874
