12
* (null), Energy   -1000.0000000
C     1.321514    0.518496   -0.072777   -0.000953    0.000474   -0.000008
C     1.109175   -0.817930    0.032797    0.000120    0.000429   -0.000034
N    -0.152373   -1.344381    0.103578   -0.001553   -0.002345    0.000229
C    -1.303319   -0.575774    0.076278   -0.000220    0.001974   -0.000135
N    -1.058010    0.780216   -0.032013    0.118979   -0.087430    0.003564
C     0.185580    1.426809   -0.112240   -0.001531   -0.000136    0.000059
O    -2.424404   -1.053547    0.141169    0.000521    0.000151   -0.000024
O     0.240353    2.647240   -0.204710    0.000114   -0.000415    0.000026
H     1.922616   -1.545424    0.067591    0.000621   -0.000606    0.000035
H    -0.283402   -2.349496    0.186263    0.004705    0.049626   -0.004031
H    -1.883441    1.377385   -0.056304   -1.613838    1.170018   -0.047401
H     2.325711    0.936406   -0.129663   -0.002509   -0.000024    0.000078
12
* Frequency(34) 3575.1140
C     1.321406    0.518550   -0.072778   -0.000953    0.000474   -0.000008
C     1.109189   -0.817881    0.032793    0.000120    0.000429   -0.000034
N    -0.152550   -1.344648    0.103604   -0.001553   -0.002345    0.000229
C    -1.303344   -0.575550    0.076263   -0.000220    0.001974   -0.000135
N    -1.044489    0.770280   -0.031608    0.118979   -0.087430    0.003564
C     0.185406    1.426793   -0.112233   -0.001531   -0.000136    0.000059
O    -2.424345   -1.053530    0.141166    0.000521    0.000151   -0.000024
O     0.240366    2.647193   -0.204707    0.000114   -0.000415    0.000026
H     1.922687   -1.545493    0.067595    0.000621   -0.000606    0.000035
H    -0.282867   -2.343857    0.185805    0.004705    0.049626   -0.004031
H    -2.066845    1.510352   -0.061691   -1.613838    1.170018   -0.047401
H     2.325426    0.936403   -0.129654   -0.002509   -0.000024    0.000078
12
* Frequency(34) 3575.1140
C     1.321309    0.518598   -0.072778   -0.000953    0.000474   -0.000008
C     1.109201   -0.817838    0.032790    0.000120    0.000429   -0.000034
N    -0.152707   -1.344885    0.103628   -0.001553   -0.002345    0.000229
C    -1.303366   -0.575350    0.076249   -0.000220    0.001974   -0.000135
N    -1.032433    0.761421   -0.031246    0.118979   -0.087430    0.003564
C     0.185251    1.426779   -0.112227   -0.001531   -0.000136    0.000059
O    -2.424292   -1.053514    0.141164    0.000521    0.000151   -0.000024
O     0.240378    2.647151   -0.204705    0.000114   -0.000415    0.000026
H     1.922750   -1.545554    0.067598    0.000621   -0.000606    0.000035
H    -0.282390   -2.338828    0.185397    0.004705    0.049626   -0.004031
H    -2.230375    1.628909   -0.066494   -1.613838    1.170018   -0.047401
H     2.325171    0.936401   -0.129646   -0.002509   -0.000024    0.000078
12
* Frequency(34) 3575.1140
C     1.321235    0.518635   -0.072779   -0.000953    0.000474   -0.000008
C     1.109211   -0.817804    0.032787    0.000120    0.000429   -0.000034
N    -0.152829   -1.345068    0.103645   -0.001553   -0.002345    0.000229
C    -1.303384   -0.575196    0.076239   -0.000220    0.001974   -0.000135
N    -1.023148    0.754599   -0.030968    0.118979   -0.087430    0.003564
C     0.185131    1.426769   -0.112222   -0.001531   -0.000136    0.000059
O    -2.424252   -1.053503    0.141162    0.000521    0.000151   -0.000024
O     0.240387    2.647118   -0.204703    0.000114   -0.000415    0.000026
H     1.922798   -1.545602    0.067601    0.000621   -0.000606    0.000035
H    -0.282023   -2.334956    0.185082    0.004705    0.049626   -0.004031
H    -2.356309    1.720210   -0.070193   -1.613838    1.170018   -0.047401
H     2.324976    0.936399   -0.129640   -0.002509   -0.000024    0.000078
12
* Frequency(34) 3575.1140
C     1.321190    0.518657   -0.072779   -0.000953    0.000474   -0.000008
C     1.109216   -0.817784    0.032786    0.000120    0.000429   -0.000034
N    -0.152900   -1.345177    0.103656   -0.001553   -0.002345    0.000229
C    -1.303394   -0.575104    0.076232   -0.000220    0.001974   -0.000135
N    -1.017642    0.750552   -0.030803    0.118979   -0.087430    0.003564
C     0.185060    1.426762   -0.112220   -0.001531   -0.000136    0.000059
O    -2.424227   -1.053496    0.141161    0.000521    0.000151   -0.000024
O     0.240392    2.647099   -0.204701    0.000114   -0.000415    0.000026
H     1.922827   -1.545630    0.067603    0.000621   -0.000606    0.000035
H    -0.281805   -2.332659    0.184896    0.004705    0.049626   -0.004031
H    -2.431000    1.774361   -0.072387   -1.613838    1.170018   -0.047401
H     2.324859    0.936398   -0.129637   -0.002509   -0.000024    0.000078
12
* Frequency(34) 3575.1140
C     1.321181    0.518662   -0.072779   -0.000953    0.000474   -0.000008
C     1.109217   -0.817780    0.032785    0.000120    0.000429   -0.000034
N    -0.152915   -1.345199    0.103658   -0.001553   -0.002345    0.000229
C    -1.303396   -0.575085    0.076231   -0.000220    0.001974   -0.000135
N    -1.016510    0.749721   -0.030769    0.118979   -0.087430    0.003564
C     0.185046    1.426761   -0.112219   -0.001531   -0.000136    0.000059
O    -2.424223   -1.053494    0.141160    0.000521    0.000151   -0.000024
O     0.240393    2.647095   -0.204701    0.000114   -0.000415    0.000026
H     1.922833   -1.545635    0.067603    0.000621   -0.000606    0.000035
H    -0.281760   -2.332187    0.184857    0.004705    0.049626   -0.004031
H    -2.446355    1.785493   -0.072838   -1.613838    1.170018   -0.047401
H     2.324835    0.936398   -0.129636   -0.002509   -0.000024    0.000078
12
* Frequency(34) 3575.1140
C     1.321208    0.518648   -0.072779   -0.000953    0.000474   -0.000008
C     1.109214   -0.817792    0.032786    0.000120    0.000429   -0.000034
N    -0.152871   -1.345133    0.103652   -0.001553   -0.002345    0.000229
C    -1.303390   -0.575141    0.076235   -0.000220    0.001974   -0.000135
N    -1.019875    0.752193   -0.030870    0.118979   -0.087430    0.003564
C     0.185089    1.426765   -0.112221   -0.001531   -0.000136    0.000059
O    -2.424237   -1.053498    0.141161    0.000521    0.000151   -0.000024
O     0.240390    2.647107   -0.204702    0.000114   -0.000415    0.000026
H     1.922815   -1.545618    0.067602    0.000621   -0.000606    0.000035
H    -0.281893   -2.333590    0.184971    0.004705    0.049626   -0.004031
H    -2.400709    1.752400   -0.071497   -1.613838    1.170018   -0.047401
H     2.324906    0.936398   -0.129638   -0.002509   -0.000024    0.000078
12
* Frequency(34) 3575.1140
C     1.321268    0.518618   -0.072779   -0.000953    0.000474   -0.000008
C     1.109206   -0.817819    0.032788    0.000120    0.000429   -0.000034
N    -0.152773   -1.344985    0.103637   -0.001553   -0.002345    0.000229
C    -1.303376   -0.575266    0.076243   -0.000220    0.001974   -0.000135
N    -1.027373    0.757703   -0.031095    0.118979   -0.087430    0.003564
C     0.185185    1.426774   -0.112225   -0.001531   -0.000136    0.000059
O    -2.424270   -1.053508    0.141163    0.000521    0.000151   -0.000024
O     0.240383    2.647133   -0.204704    0.000114   -0.000415    0.000026
H     1.922776   -1.545580    0.067600    0.000621   -0.000606    0.000035
H    -0.282190   -2.336718    0.185225    0.004705    0.049626   -0.004031
H    -2.299010    1.678669   -0.068510   -1.613838    1.170018   -0.047401
H     2.325065    0.936400   -0.129643   -0.002509   -0.000024    0.000078
12
* Frequency(34) 3575.1140
C     1.321355    0.518575   -0.072778   -0.000953    0.000474   -0.000008
C     1.109195   -0.817859    0.032791    0.000120    0.000429   -0.000034
N    -0.152632   -1.344772    0.103616   -0.001553   -0.002345    0.000229
C    -1.303356   -0.575445    0.076256   -0.000220    0.001974   -0.000135
N    -1.038190    0.765652   -0.031419    0.118979   -0.087430    0.003564
C     0.185325    1.426786   -0.112230   -0.001531   -0.000136    0.000059
O    -2.424318   -1.053522    0.141165    0.000521    0.000151   -0.000024
O     0.240372    2.647171   -0.204706    0.000114   -0.000415    0.000026
H     1.922720   -1.545525    0.067597    0.000621   -0.000606    0.000035
H    -0.282618   -2.341230    0.185592    0.004705    0.049626   -0.004031
H    -2.152276    1.572289   -0.064201   -1.613838    1.170018   -0.047401
H     2.325293    0.936402   -0.129650   -0.002509   -0.000024    0.000078
12
* Frequency(34) 3575.1140
C     1.321459    0.518524   -0.072777   -0.000953    0.000474   -0.000008
C     1.109182   -0.817905    0.032795    0.000120    0.000429   -0.000034
N    -0.152463   -1.344516    0.103592   -0.001553   -0.002345    0.000229
C    -1.303332   -0.575660    0.076270   -0.000220    0.001974   -0.000135
N    -1.051156    0.775180   -0.031807    0.118979   -0.087430    0.003564
C     0.185492    1.426801   -0.112236   -0.001531   -0.000136    0.000059
O    -2.424374   -1.053538    0.141167    0.000521    0.000151   -0.000024
O     0.240360    2.647216   -0.204709    0.000114   -0.000415    0.000026
H     1.922652   -1.545459    0.067593    0.000621   -0.000606    0.000035
H    -0.283130   -2.346638    0.186031    0.004705    0.049626   -0.004031
H    -1.976411    1.444788   -0.059035   -1.613838    1.170018   -0.047401
H     2.325566    0.936405   -0.129659   -0.002509   -0.000024    0.000078
12
* Frequency(34) 3575.1140
C     1.321569    0.518469   -0.072776   -0.000953    0.000474   -0.000008
C     1.109168   -0.817955    0.032799    0.000120    0.000429   -0.000034
N    -0.152284   -1.344246    0.103565   -0.001553   -0.002345    0.000229
C    -1.303306   -0.575888    0.076286   -0.000220    0.001974   -0.000135
N    -1.064864    0.785253   -0.032218    0.118979   -0.087430    0.003564
C     0.185668    1.426816   -0.112243   -0.001531   -0.000136    0.000059
O    -2.424434   -1.053555    0.141170    0.000521    0.000151   -0.000024
O     0.240347    2.647264   -0.204712    0.000114   -0.000415    0.000026
H     1.922580   -1.545389    0.067589    0.000621   -0.000606    0.000035
H    -0.283673   -2.352355    0.186496    0.004705    0.049626   -0.004031
H    -1.790471    1.309983   -0.053574   -1.613838    1.170018   -0.047401
H     2.325855    0.936408   -0.129668   -0.002509   -0.000024    0.000078
12
* Frequency(34) 3575.1140
C     1.321673    0.518417   -0.072775   -0.000953    0.000474   -0.000008
C     1.109155   -0.818002    0.032803    0.000120    0.000429   -0.000034
N    -0.152115   -1.343991    0.103540   -0.001553   -0.002345    0.000229
C    -1.303282   -0.576103    0.076301   -0.000220    0.001974   -0.000135
N    -1.077830    0.794781   -0.032606    0.118979   -0.087430    0.003564
C     0.185835    1.426831   -0.112249   -0.001531   -0.000136    0.000059
O    -2.424491   -1.053572    0.141173    0.000521    0.000151   -0.000024
O     0.240334    2.647309   -0.204714    0.000114   -0.000415    0.000026
H     1.922513   -1.545323    0.067585    0.000621   -0.000606    0.000035
H    -0.284185   -2.357763    0.186935    0.004705    0.049626   -0.004031
H    -1.614605    1.182482   -0.048408   -1.613838    1.170018   -0.047401
H     2.326129    0.936410   -0.129676   -0.002509   -0.000024    0.000078
12
* Frequency(34) 3575.1140
C     1.321759    0.518374   -0.072775   -0.000953    0.000474   -0.000008
C     1.109144   -0.818041    0.032806    0.000120    0.000429   -0.000034
N    -0.151973   -1.343777    0.103519   -0.001553   -0.002345    0.000229
C    -1.303262   -0.576282    0.076313   -0.000220    0.001974   -0.000135
N    -1.088648    0.802730   -0.032930    0.118979   -0.087430    0.003564
C     0.185974    1.426844   -0.112255   -0.001531   -0.000136    0.000059
O    -2.424539   -1.053585    0.141175    0.000521    0.000151   -0.000024
O     0.240324    2.647347   -0.204717    0.000114   -0.000415    0.000026
H     1.922456   -1.545268    0.067582    0.000621   -0.000606    0.000035
H    -0.284613   -2.362275    0.187301    0.004705    0.049626   -0.004031
H    -1.467872    1.076102   -0.044099   -1.613838    1.170018   -0.047401
H     2.326357    0.936412   -0.129683   -0.002509   -0.000024    0.000078
12
* Frequency(34) 3575.1140
C     1.321819    0.518344   -0.072774   -0.000953    0.000474   -0.000008
C     1.109137   -0.818068    0.032808    0.000120    0.000429   -0.000034
N    -0.151876   -1.343630    0.103505   -0.001553   -0.002345    0.000229
C    -1.303249   -0.576407    0.076322   -0.000220    0.001974   -0.000135
N    -1.096145    0.808239   -0.033155    0.118979   -0.087430    0.003564
C     0.186071    1.426852   -0.112258   -0.001531   -0.000136    0.000059
O    -2.424572   -1.053595    0.141176    0.000521    0.000151   -0.000024
O     0.240317    2.647373   -0.204718    0.000114   -0.000415    0.000026
H     1.922417   -1.545230    0.067580    0.000621   -0.000606    0.000035
H    -0.284910   -2.365403    0.187555    0.004705    0.049626   -0.004031
H    -1.366172    1.002370   -0.041111   -1.613838    1.170018   -0.047401
H     2.326515    0.936414   -0.129688   -0.002509   -0.000024    0.000078
12
* Frequency(34) 3575.1140
C     1.321846    0.518331   -0.072774   -0.000953    0.000474   -0.000008
C     1.109133   -0.818080    0.032809    0.000120    0.000429   -0.000034
N    -0.151832   -1.343563    0.103499   -0.001553   -0.002345    0.000229
C    -1.303242   -0.576463    0.076325   -0.000220    0.001974   -0.000135
N    -1.099511    0.810712   -0.033256    0.118979   -0.087430    0.003564
C     0.186114    1.426856   -0.112260   -0.001531   -0.000136    0.000059
O    -2.424586   -1.053599    0.141177    0.000521    0.000151   -0.000024
O     0.240314    2.647384   -0.204719    0.000114   -0.000415    0.000026
H     1.922400   -1.545213    0.067579    0.000621   -0.000606    0.000035
H    -0.285043   -2.366806    0.187669    0.004705    0.049626   -0.004031
H    -1.320527    0.969278   -0.039771   -1.613838    1.170018   -0.047401
H     2.326586    0.936415   -0.129691   -0.002509   -0.000024    0.000078
12
* Frequency(34) 3575.1140
C     1.321837    0.518335   -0.072774   -0.000953    0.000474   -0.000008
C     1.109134   -0.818076    0.032809    0.000120    0.000429   -0.000034
N    -0.151846   -1.343586    0.103501   -0.001553   -0.002345    0.000229
C    -1.303244   -0.576444    0.076324   -0.000220    0.001974   -0.000135
N    -1.098379    0.809880   -0.033222    0.118979   -0.087430    0.003564
C     0.186099    1.426855   -0.112259   -0.001531   -0.000136    0.000059
O    -2.424581   -1.053598    0.141177    0.000521    0.000151   -0.000024
O     0.240315    2.647381   -0.204719    0.000114   -0.000415    0.000026
H     1.922406   -1.545218    0.067579    0.000621   -0.000606    0.000035
H    -0.284998   -2.366334    0.187631    0.004705    0.049626   -0.004031
H    -1.335881    0.980410   -0.040222   -1.613838    1.170018   -0.047401
H     2.326562    0.936414   -0.129690   -0.002509   -0.000024    0.000078
12
* Frequency(34) 3575.1140
C     1.321793    0.518357   -0.072775   -0.000953    0.000474   -0.000008
C     1.109140   -0.818056    0.032807    0.000120    0.000429   -0.000034
N    -0.151918   -1.343694    0.103511   -0.001553   -0.002345    0.000229
C    -1.303255   -0.576352    0.076318   -0.000220    0.001974   -0.000135
N    -1.092872    0.805834   -0.033057    0.118979   -0.087430    0.003564
C     0.186029    1.426848   -0.112257   -0.001531   -0.000136    0.000059
O    -2.424557   -1.053591    0.141176    0.000521    0.000151   -0.000024
O     0.240320    2.647361   -0.204718    0.000114   -0.000415    0.000026
H     1.922434   -1.545246    0.067581    0.000621   -0.000606    0.000035
H    -0.284780   -2.364037    0.187444    0.004705    0.049626   -0.004031
H    -1.410573    1.034560   -0.042416   -1.613838    1.170018   -0.047401
H     2.326446    0.936413   -0.129686   -0.002509   -0.000024    0.000078
12
* Frequency(34) 3575.1140
C     1.321719    0.518394   -0.072775   -0.000953    0.000474   -0.000008
C     1.109149   -0.818022    0.032805    0.000120    0.000429   -0.000034
N    -0.152039   -1.343877    0.103529   -0.001553   -0.002345    0.000229
C    -1.303272   -0.576198    0.076307   -0.000220    0.001974   -0.000135
N    -1.083588    0.799011   -0.032779    0.118979   -0.087430    0.003564
C     0.185909    1.426838   -0.112252   -0.001531   -0.000136    0.000059
O    -2.424516   -1.053579    0.141174    0.000521    0.000151   -0.000024
O     0.240329    2.647329   -0.204716    0.000114   -0.000415    0.000026
H     1.922483   -1.545294    0.067583    0.000621   -0.000606    0.000035
H    -0.284413   -2.360165    0.187130    0.004705    0.049626   -0.004031
H    -1.536507    1.125861   -0.046114   -1.613838    1.170018   -0.047401
H     2.326250    0.936411   -0.129680   -0.002509   -0.000024    0.000078
12
* Frequency(34) 3575.1140
C     1.321622    0.518442   -0.072776   -0.000953    0.000474   -0.000008
C     1.109162   -0.817979    0.032801    0.000120    0.000429   -0.000034
N    -0.152197   -1.344115    0.103552   -0.001553   -0.002345    0.000229
C    -1.303294   -0.575998    0.076294   -0.000220    0.001974   -0.000135
N    -1.071532    0.790152   -0.032418    0.118979   -0.087430    0.003564
C     0.185754    1.426824   -0.112246   -0.001531   -0.000136    0.000059
O    -2.424464   -1.053564    0.141171    0.000521    0.000151   -0.000024
O     0.240340    2.647287   -0.204713    0.000114   -0.000415    0.000026
H     1.922546   -1.545355    0.067587    0.000621   -0.000606    0.000035
H    -0.283936   -2.355136    0.186721    0.004705    0.049626   -0.004031
H    -1.700036    1.244419   -0.050918   -1.613838    1.170018   -0.047401
H     2.325996    0.936409   -0.129672   -0.002509   -0.000024    0.000078
12
* Frequency(34) 3575.1140
C     1.321514    0.518496   -0.072777   -0.000953    0.000474   -0.000008
C     1.109175   -0.817930    0.032797    0.000120    0.000429   -0.000034
N    -0.152373   -1.344381    0.103578   -0.001553   -0.002345    0.000229
C    -1.303319   -0.575774    0.076278   -0.000220    0.001974   -0.000135
N    -1.058010    0.780216   -0.032013    0.118979   -0.087430    0.003564
C     0.185580    1.426809   -0.112240   -0.001531   -0.000136    0.000059
O    -2.424404   -1.053547    0.141169    0.000521    0.000151   -0.000024
O     0.240353    2.647240   -0.204710    0.000114   -0.000415    0.000026
H     1.922616   -1.545424    0.067591    0.000621   -0.000606    0.000035
H    -0.283402   -2.349496    0.186263    0.004705    0.049626   -0.004031
H    -1.883441    1.377385   -0.056304   -1.613838    1.170018   -0.047401
H     2.325711    0.936406   -0.129663   -0.002509   -0.000024    0.000078
