12
* (null), Energy   -1000.0000000
C     1.625816    0.316601   -0.065250    0.291820   -0.075789   -0.008030
C     1.413215   -1.019528    0.041288    0.137738   -0.131009    0.016365
N     0.151412   -1.546563    0.113379    0.126742   -0.348181    0.015645
C    -1.001718   -0.778391    0.084609    0.237718   -0.094668   -0.002277
N    -0.754728    0.578612   -0.023325    0.557606   -0.351442    0.010998
C     0.489437    1.226278   -0.105125    0.151477   -0.108334   -0.001273
O    -2.121379   -1.255957    0.147970   -0.232065    1.031599   -0.068563
O     0.544888    2.445398   -0.199422   -1.069718   -0.041826    0.034403
H     2.227146   -1.747036    0.075476    0.174891   -0.093970    0.035371
H     0.020614   -2.552189    0.190181    0.266935   -0.371016    0.032810
H    -1.580237    1.175741   -0.048115    0.567089   -0.352886    0.029905
H     2.630238    0.734097   -0.122298    0.387437   -0.286945    0.016838
12
* Frequency(8)  393.7892
C     1.658979    0.307989   -0.066163    0.291820   -0.075789   -0.008030
C     1.428868   -1.034417    0.043148    0.137738   -0.131009    0.016365
N     0.165816   -1.586132    0.115157    0.126742   -0.348181    0.015645
C    -0.974702   -0.789149    0.084351    0.237718   -0.094668   -0.002277
N    -0.691359    0.538673   -0.022075    0.557606   -0.351442    0.010998
C     0.506652    1.213967   -0.105269    0.151477   -0.108334   -0.001273
O    -2.147752   -1.138721    0.140178   -0.232065    1.031599   -0.068563
O     0.423320    2.440645   -0.195512   -1.069718   -0.041826    0.034403
H     2.247022   -1.757715    0.079495    0.174891   -0.093970    0.035371
H     0.050950   -2.594353    0.193910    0.266935   -0.371016    0.032810
H    -1.515791    1.135638   -0.044717    0.567089   -0.352886    0.029905
H     2.674268    0.701487   -0.120384    0.387437   -0.286945    0.016838
12
* Frequency(8)  393.7892
C     1.688549    0.300309   -0.066976    0.291820   -0.075789   -0.008030
C     1.442825   -1.047692    0.044806    0.137738   -0.131009    0.016365
N     0.178658   -1.621413    0.116742    0.126742   -0.348181    0.015645
C    -0.950614   -0.798742    0.084120    0.237718   -0.094668   -0.002277
N    -0.634857    0.503061   -0.020960    0.557606   -0.351442    0.010998
C     0.522001    1.202989   -0.105398    0.151477   -0.108334   -0.001273
O    -2.171267   -1.034189    0.133231   -0.232065    1.031599   -0.068563
O     0.314926    2.436407   -0.192026   -1.069718   -0.041826    0.034403
H     2.264743   -1.767237    0.083079    0.174891   -0.093970    0.035371
H     0.077999   -2.631948    0.197234    0.266935   -0.371016    0.032810
H    -1.458328    1.099880   -0.041687    0.567089   -0.352886    0.029905
H     2.713527    0.672411   -0.118678    0.387437   -0.286945    0.016838
12
* Frequency(8)  393.7892
C     1.711321    0.294395   -0.067603    0.291820   -0.075789   -0.008030
C     1.453573   -1.057915    0.046083    0.137738   -0.131009    0.016365
N     0.188549   -1.648583    0.117963    0.126742   -0.348181    0.015645
C    -0.932064   -0.806129    0.083942    0.237718   -0.094668   -0.002277
N    -0.591345    0.475637   -0.020102    0.557606   -0.351442    0.010998
C     0.533821    1.194535   -0.105498    0.151477   -0.108334   -0.001273
O    -2.189376   -0.953690    0.127881   -0.232065    1.031599   -0.068563
O     0.231452    2.433143   -0.189342   -1.069718   -0.041826    0.034403
H     2.278391   -1.774570    0.085840    0.174891   -0.093970    0.035371
H     0.098829   -2.660900    0.199794    0.266935   -0.371016    0.032810
H    -1.414076    1.072343   -0.039353    0.567089   -0.352886    0.029905
H     2.743760    0.650020   -0.117364    0.387437   -0.286945    0.016838
12
* Frequency(8)  393.7892
C     1.724827    0.290887   -0.067975    0.291820   -0.075789   -0.008030
C     1.459948   -1.063978    0.046841    0.137738   -0.131009    0.016365
N     0.194414   -1.664698    0.118687    0.126742   -0.348181    0.015645
C    -0.921062   -0.810511    0.083837    0.237718   -0.094668   -0.002277
N    -0.565538    0.459371   -0.019593    0.557606   -0.351442    0.010998
C     0.540832    1.189522   -0.105557    0.151477   -0.108334   -0.001273
O    -2.200117   -0.905945    0.124708   -0.232065    1.031599   -0.068563
O     0.181943    2.431207   -0.187749   -1.069718   -0.041826    0.034403
H     2.286485   -1.778919    0.087477    0.174891   -0.093970    0.035371
H     0.111183   -2.678071    0.201313    0.266935   -0.371016    0.032810
H    -1.387830    1.056011   -0.037969    0.567089   -0.352886    0.029905
H     2.761691    0.636740   -0.116585    0.387437   -0.286945    0.016838
12
* Frequency(8)  393.7892
C     1.727604    0.290166   -0.068051    0.291820   -0.075789   -0.008030
C     1.461259   -1.065225    0.046996    0.137738   -0.131009    0.016365
N     0.195620   -1.668011    0.118836    0.126742   -0.348181    0.015645
C    -0.918801   -0.811411    0.083815    0.237718   -0.094668   -0.002277
N    -0.560233    0.456028   -0.019488    0.557606   -0.351442    0.010998
C     0.542273    1.188491   -0.105569    0.151477   -0.108334   -0.001273
O    -2.202325   -0.896130    0.124055   -0.232065    1.031599   -0.068563
O     0.171765    2.430809   -0.187422   -1.069718   -0.041826    0.034403
H     2.288149   -1.779813    0.087813    0.174891   -0.093970    0.035371
H     0.113723   -2.681601    0.201625    0.266935   -0.371016    0.032810
H    -1.382434    1.052653   -0.037684    0.567089   -0.352886    0.029905
H     2.765377    0.634009   -0.116424    0.387437   -0.286945    0.016838
12
* Frequency(8)  393.7892
C     1.719350    0.292310   -0.067824    0.291820   -0.075789   -0.008030
C     1.457363   -1.061519    0.046533    0.137738   -0.131009    0.016365
N     0.192036   -1.658163    0.118394    0.126742   -0.348181    0.015645
C    -0.925524   -0.808734    0.083879    0.237718   -0.094668   -0.002277
N    -0.576004    0.465968   -0.019799    0.557606   -0.351442    0.010998
C     0.537989    1.191555   -0.105533    0.151477   -0.108334   -0.001273
O    -2.195761   -0.925308    0.125995   -0.232065    1.031599   -0.068563
O     0.202021    2.431992   -0.188395   -1.069718   -0.041826    0.034403
H     2.283203   -1.777156    0.086813    0.174891   -0.093970    0.035371
H     0.106173   -2.671107    0.200697    0.266935   -0.371016    0.032810
H    -1.398474    1.062634   -0.038530    0.567089   -0.352886    0.029905
H     2.754419    0.642125   -0.116901    0.387437   -0.286945    0.016838
12
* Frequency(8)  393.7892
C     1.700960    0.297086   -0.067318    0.291820   -0.075789   -0.008030
C     1.448683   -1.053264    0.045502    0.137738   -0.131009    0.016365
N     0.184049   -1.636221    0.117408    0.126742   -0.348181    0.015645
C    -0.940505   -0.802768    0.084023    0.237718   -0.094668   -0.002277
N    -0.611143    0.488115   -0.020493    0.557606   -0.351442    0.010998
C     0.528443    1.198382   -0.105453    0.151477   -0.108334   -0.001273
O    -2.181137   -0.990316    0.130315   -0.232065    1.031599   -0.068563
O     0.269432    2.434628   -0.190563   -1.069718   -0.041826    0.034403
H     2.272181   -1.771234    0.084584    0.174891   -0.093970    0.035371
H     0.089351   -2.647727    0.198630    0.266935   -0.371016    0.032810
H    -1.434210    1.084872   -0.040415    0.567089   -0.352886    0.029905
H     2.730004    0.660208   -0.117962    0.387437   -0.286945    0.016838
12
* Frequency(8)  393.7892
C     1.674427    0.303977   -0.066588    0.291820   -0.075789   -0.008030
C     1.436160   -1.041352    0.044014    0.137738   -0.131009    0.016365
N     0.172525   -1.604564    0.115985    0.126742   -0.348181    0.015645
C    -0.962118   -0.794161    0.084230    0.237718   -0.094668   -0.002277
N    -0.661841    0.520068   -0.021492    0.557606   -0.351442    0.010998
C     0.514670    1.208232   -0.105337    0.151477   -0.108334   -0.001273
O    -2.160037   -1.084111    0.136549   -0.232065    1.031599   -0.068563
O     0.366693    2.438431   -0.193691   -1.069718   -0.041826    0.034403
H     2.256280   -1.762690    0.081368    0.174891   -0.093970    0.035371
H     0.065081   -2.613993    0.195646    0.266935   -0.371016    0.032810
H    -1.485771    1.116957   -0.043134    0.567089   -0.352886    0.029905
H     2.694778    0.686297   -0.119493    0.387437   -0.286945    0.016838
12
* Frequency(8)  393.7892
C     1.642627    0.312235   -0.065713    0.291820   -0.075789   -0.008030
C     1.421150   -1.027076    0.042231    0.137738   -0.131009    0.016365
N     0.158713   -1.566621    0.114280    0.126742   -0.348181    0.015645
C    -0.988023   -0.783844    0.084478    0.237718   -0.094668   -0.002277
N    -0.722606    0.558366   -0.022691    0.557606   -0.351442    0.010998
C     0.498164    1.220037   -0.105198    0.151477   -0.108334   -0.001273
O    -2.134748   -1.196528    0.144020   -0.232065    1.031599   -0.068563
O     0.483263    2.442988   -0.197440   -1.069718   -0.041826    0.034403
H     2.237221   -1.752450    0.077513    0.174891   -0.093970    0.035371
H     0.035992   -2.573563    0.192071    0.266935   -0.371016    0.032810
H    -1.547569    1.155412   -0.046393    0.567089   -0.352886    0.029905
H     2.652557    0.717567   -0.121328    0.387437   -0.286945    0.016838
12
* Frequency(8)  393.7892
C     1.609004    0.320968   -0.064788    0.291820   -0.075789   -0.008030
C     1.405280   -1.011981    0.040345    0.137738   -0.131009    0.016365
N     0.144111   -1.526505    0.112478    0.126742   -0.348181    0.015645
C    -1.015412   -0.772937    0.084741    0.237718   -0.094668   -0.002277
N    -0.786851    0.598858   -0.023958    0.557606   -0.351442    0.010998
C     0.480711    1.232519   -0.105052    0.151477   -0.108334   -0.001273
O    -2.108011   -1.315385    0.151920   -0.232065    1.031599   -0.068563
O     0.606512    2.447807   -0.201404   -1.069718   -0.041826    0.034403
H     2.217071   -1.741623    0.073438    0.174891   -0.093970    0.035371
H     0.005237   -2.530816    0.188291    0.266935   -0.371016    0.032810
H    -1.612906    1.196070   -0.049838    0.567089   -0.352886    0.029905
H     2.607918    0.750627   -0.123268    0.387437   -0.286945    0.016838
12
* Frequency(8)  393.7892
C     1.577204    0.329226   -0.063912    0.291820   -0.075789   -0.008030
C     1.390270   -0.997705    0.038562    0.137738   -0.131009    0.016365
N     0.130299   -1.488563    0.110773    0.126742   -0.348181    0.015645
C    -1.041317   -0.762621    0.084989    0.237718   -0.094668   -0.002277
N    -0.847615    0.637156   -0.025157    0.557606   -0.351442    0.010998
C     0.464204    1.244325   -0.104913    0.151477   -0.108334   -0.001273
O    -2.082722   -1.427802    0.159391   -0.232065    1.031599   -0.068563
O     0.723083    2.452365   -0.205153   -1.069718   -0.041826    0.034403
H     2.198013   -1.731383    0.069583    0.174891   -0.093970    0.035371
H    -0.023852   -2.490385    0.184715    0.266935   -0.371016    0.032810
H    -1.674704    1.234526   -0.053097    0.567089   -0.352886    0.029905
H     2.565698    0.781897   -0.125103    0.387437   -0.286945    0.016838
12
* Frequency(8)  393.7892
C     1.550671    0.336117   -0.063182    0.291820   -0.075789   -0.008030
C     1.377747   -0.985793    0.037074    0.137738   -0.131009    0.016365
N     0.118776   -1.456905    0.109350    0.126742   -0.348181    0.015645
C    -1.062931   -0.754013    0.085196    0.237718   -0.094668   -0.002277
N    -0.898314    0.669110   -0.026157    0.557606   -0.351442    0.010998
C     0.450431    1.254175   -0.104797    0.151477   -0.108334   -0.001273
O    -2.061622   -1.521597    0.165625   -0.232065    1.031599   -0.068563
O     0.820344    2.456168   -0.208281   -1.069718   -0.041826    0.034403
H     2.182111   -1.722839    0.066367    0.174891   -0.093970    0.035371
H    -0.048122   -2.456651    0.181732    0.266935   -0.371016    0.032810
H    -1.726265    1.266611   -0.055816    0.567089   -0.352886    0.029905
H     2.530471    0.807986   -0.126634    0.387437   -0.286945    0.016838
12
* Frequency(8)  393.7892
C     1.532281    0.340893   -0.062676    0.291820   -0.075789   -0.008030
C     1.369067   -0.977537    0.036043    0.137738   -0.131009    0.016365
N     0.110789   -1.434964    0.108364    0.126742   -0.348181    0.015645
C    -1.077911   -0.748048    0.085339    0.237718   -0.094668   -0.002277
N    -0.933453    0.691257   -0.026850    0.557606   -0.351442    0.010998
C     0.440886    1.261002   -0.104717    0.151477   -0.108334   -0.001273
O    -2.046998   -1.586606    0.169946   -0.232065    1.031599   -0.068563
O     0.887754    2.458804   -0.210449   -1.069718   -0.041826    0.034403
H     2.171090   -1.716917    0.064138    0.174891   -0.093970    0.035371
H    -0.064944   -2.433271    0.179665    0.266935   -0.371016    0.032810
H    -1.762001    1.288849   -0.057700    0.567089   -0.352886    0.029905
H     2.506056    0.826069   -0.127695    0.387437   -0.286945    0.016838
12
* Frequency(8)  393.7892
C     1.524027    0.343037   -0.062449    0.291820   -0.075789   -0.008030
C     1.365172   -0.973832    0.035580    0.137738   -0.131009    0.016365
N     0.107204   -1.425116    0.107922    0.126742   -0.348181    0.015645
C    -1.084635   -0.745370    0.085404    0.237718   -0.094668   -0.002277
N    -0.949224    0.701197   -0.027161    0.557606   -0.351442    0.010998
C     0.436601    1.264066   -0.104681    0.151477   -0.108334   -0.001273
O    -2.040434   -1.615783    0.171885   -0.232065    1.031599   -0.068563
O     0.918010    2.459987   -0.211422   -1.069718   -0.041826    0.034403
H     2.166143   -1.714259    0.063138    0.174891   -0.093970    0.035371
H    -0.072494   -2.422777    0.178737    0.266935   -0.371016    0.032810
H    -1.778041    1.298830   -0.058546    0.567089   -0.352886    0.029905
H     2.495098    0.834185   -0.128171    0.387437   -0.286945    0.016838
12
* Frequency(8)  393.7892
C     1.526804    0.342316   -0.062526    0.291820   -0.075789   -0.008030
C     1.366482   -0.975078    0.035735    0.137738   -0.131009    0.016365
N     0.108410   -1.428429    0.108071    0.126742   -0.348181    0.015645
C    -1.082373   -0.746271    0.085382    0.237718   -0.094668   -0.002277
N    -0.943919    0.697853   -0.027056    0.557606   -0.351442    0.010998
C     0.438043    1.263035   -0.104693    0.151477   -0.108334   -0.001273
O    -2.042642   -1.605968    0.171233   -0.232065    1.031599   -0.068563
O     0.907832    2.459589   -0.211095   -1.069718   -0.041826    0.034403
H     2.167807   -1.715153    0.063475    0.174891   -0.093970    0.035371
H    -0.069954   -2.426307    0.179049    0.266935   -0.371016    0.032810
H    -1.772645    1.295472   -0.058262    0.567089   -0.352886    0.029905
H     2.498784    0.831455   -0.128011    0.387437   -0.286945    0.016838
12
* Frequency(8)  393.7892
C     1.540310    0.338808   -0.062897    0.291820   -0.075789   -0.008030
C     1.372857   -0.981142    0.036493    0.137738   -0.131009    0.016365
N     0.114276   -1.444543    0.108795    0.126742   -0.348181    0.015645
C    -1.071371   -0.750652    0.085277    0.237718   -0.094668   -0.002277
N    -0.918111    0.681588   -0.026547    0.557606   -0.351442    0.010998
C     0.445053    1.258021   -0.104752    0.151477   -0.108334   -0.001273
O    -2.053382   -1.558224    0.168060   -0.232065    1.031599   -0.068563
O     0.858324    2.457653   -0.209502   -1.069718   -0.041826    0.034403
H     2.175902   -1.719502    0.065112    0.174891   -0.093970    0.035371
H    -0.057600   -2.443478    0.180567    0.266935   -0.371016    0.032810
H    -1.746399    1.279140   -0.056878    0.567089   -0.352886    0.029905
H     2.516715    0.818174   -0.127231    0.387437   -0.286945    0.016838
12
* Frequency(8)  393.7892
C     1.563082    0.332894   -0.063524    0.291820   -0.075789   -0.008030
C     1.383605   -0.991365    0.037770    0.137738   -0.131009    0.016365
N     0.124166   -1.471713    0.110016    0.126742   -0.348181    0.015645
C    -1.052821   -0.758039    0.085099    0.237718   -0.094668   -0.002277
N    -0.874599    0.654163   -0.025689    0.557606   -0.351442    0.010998
C     0.456874    1.249567   -0.104851    0.151477   -0.108334   -0.001273
O    -2.071491   -1.477724    0.162709   -0.232065    1.031599   -0.068563
O     0.774850    2.454389   -0.206818   -1.069718   -0.041826    0.034403
H     2.189549   -1.726835    0.067872    0.174891   -0.093970    0.035371
H    -0.036770   -2.472430    0.183128    0.266935   -0.371016    0.032810
H    -1.702147    1.251603   -0.054544    0.567089   -0.352886    0.029905
H     2.546949    0.795783   -0.125917    0.387437   -0.286945    0.016838
12
* Frequency(8)  393.7892
C     1.592652    0.325214   -0.064338    0.291820   -0.075789   -0.008030
C     1.397562   -1.004640    0.039428    0.137738   -0.131009    0.016365
N     0.137008   -1.506994    0.111601    0.126742   -0.348181    0.015645
C    -1.028733   -0.767632    0.084868    0.237718   -0.094668   -0.002277
N    -0.818097    0.618552   -0.024574    0.557606   -0.351442    0.010998
C     0.472223    1.238590   -0.104980    0.151477   -0.108334   -0.001273
O    -2.095006   -1.373193    0.155762   -0.232065    1.031599   -0.068563
O     0.666456    2.450151   -0.203332   -1.069718   -0.041826    0.034403
H     2.207271   -1.736357    0.071456    0.174891   -0.093970    0.035371
H    -0.009721   -2.510025    0.186452    0.266935   -0.371016    0.032810
H    -1.644684    1.215845   -0.051514    0.567089   -0.352886    0.029905
H     2.586207    0.766707   -0.124211    0.387437   -0.286945    0.016838
12
* Frequency(8)  393.7892
C     1.625816    0.316601   -0.065250    0.291820   -0.075789   -0.008030
C     1.413215   -1.019528    0.041288    0.137738   -0.131009    0.016365
N     0.151412   -1.546563    0.113379    0.126742   -0.348181    0.015645
C    -1.001718   -0.778391    0.084609    0.237718   -0.094668   -0.002277
N    -0.754728    0.578612   -0.023325    0.557606   -0.351442    0.010998
C     0.489437    1.226278   -0.105125    0.151477   -0.108334   -0.001273
O    -2.121379   -1.255957    0.147970   -0.232065    1.031599   -0.068563
O     0.544888    2.445398   -0.199422   -1.069718   -0.041826    0.034403
H     2.227146   -1.747036    0.075476    0.174891   -0.093970    0.035371
H     0.020614   -2.552189    0.190181    0.266935   -0.371016    0.032810
H    -1.580237    1.175741   -0.048115    0.567089   -0.352886    0.029905
H     2.630238    0.734097   -0.122298    0.387437   -0.286945    0.016838
