12
* (null), Energy   -1000.0000000
C     1.625816    0.316601   -0.065250   -0.002230   -0.003236   -0.051069
C     1.413215   -1.019528    0.041288    0.006248    0.020776    0.268868
N     0.151412   -1.546563    0.113379   -0.000744   -0.002924   -0.027906
C    -1.001718   -0.778391    0.084609   -0.007073   -0.021685   -0.284796
N    -0.754728    0.578612   -0.023325   -0.001114   -0.005881   -0.069938
C     0.489437    1.226278   -0.105125    0.010669    0.031130    0.409785
O    -2.121379   -1.255957    0.147970    0.002201    0.007273    0.094388
O     0.544888    2.445398   -0.199422   -0.002313   -0.008134   -0.107153
H     2.227146   -1.747036    0.075476   -0.009675   -0.029166   -0.418352
H     0.020614   -2.552189    0.190181   -0.012202   -0.035951   -0.478826
H    -1.580237    1.175741   -0.048115    0.005642    0.012987    0.162179
H     2.630238    0.734097   -0.122298   -0.046900   -0.133392   -1.787336
12
* Frequency(15)  735.0191
C     1.625562    0.316234   -0.071054   -0.002230   -0.003236   -0.051069
C     1.413925   -1.017167    0.071843    0.006248    0.020776    0.268868
N     0.151328   -1.546896    0.110208   -0.000744   -0.002924   -0.027906
C    -1.002521   -0.780855    0.052244   -0.007073   -0.021685   -0.284796
N    -0.754855    0.577944   -0.031273   -0.001114   -0.005881   -0.069938
C     0.490650    1.229816   -0.058555    0.010669    0.031130    0.409785
O    -2.121129   -1.255130    0.158697    0.002201    0.007273    0.094388
O     0.544625    2.444474   -0.211599   -0.002313   -0.008134   -0.107153
H     2.226047   -1.750351    0.027932   -0.009675   -0.029166   -0.418352
H     0.019228   -2.556275    0.135765   -0.012202   -0.035951   -0.478826
H    -1.579596    1.177217   -0.029685    0.005642    0.012987    0.162179
H     2.624908    0.718938   -0.325419   -0.046900   -0.133392   -1.787336
12
* Frequency(15)  735.0191
C     1.625336    0.315906   -0.076229   -0.002230   -0.003236   -0.051069
C     1.414558   -1.015062    0.099088    0.006248    0.020776    0.268868
N     0.151252   -1.547192    0.107380   -0.000744   -0.002924   -0.027906
C    -1.003238   -0.783052    0.023385   -0.007073   -0.021685   -0.284796
N    -0.754968    0.577348   -0.038359   -0.001114   -0.005881   -0.069938
C     0.491731    1.232970   -0.017031    0.010669    0.031130    0.409785
O    -2.120906   -1.254393    0.168261    0.002201    0.007273    0.094388
O     0.544391    2.443649   -0.222457   -0.002313   -0.008134   -0.107153
H     2.225066   -1.753306   -0.014459   -0.009675   -0.029166   -0.418352
H     0.017991   -2.559918    0.087245   -0.012202   -0.035951   -0.478826
H    -1.579025    1.178533   -0.013251    0.005642    0.012987    0.162179
H     2.620155    0.705421   -0.506529   -0.046900   -0.133392   -1.787336
12
* Frequency(15)  735.0191
C     1.625162    0.315653   -0.080214   -0.002230   -0.003236   -0.051069
C     1.415046   -1.013441    0.120069    0.006248    0.020776    0.268868
N     0.151194   -1.547420    0.105202   -0.000744   -0.002924   -0.027906
C    -1.003790   -0.784745    0.001162   -0.007073   -0.021685   -0.284796
N    -0.755055    0.576889   -0.043817   -0.001114   -0.005881   -0.069938
C     0.492563    1.235400    0.014946    0.010669    0.031130    0.409785
O    -2.120734   -1.253826    0.175627    0.002201    0.007273    0.094388
O     0.544210    2.443015   -0.230819   -0.002313   -0.008134   -0.107153
H     2.224311   -1.755582   -0.047105   -0.009675   -0.029166   -0.418352
H     0.017039   -2.562723    0.049881   -0.012202   -0.035951   -0.478826
H    -1.578584    1.179547   -0.000595    0.005642    0.012987    0.162179
H     2.616495    0.695012   -0.646002   -0.046900   -0.133392   -1.787336
12
* Frequency(15)  735.0191
C     1.625059    0.315504   -0.082577   -0.002230   -0.003236   -0.051069
C     1.415335   -1.012479    0.132512    0.006248    0.020776    0.268868
N     0.151160   -1.547555    0.103911   -0.000744   -0.002924   -0.027906
C    -1.004117   -0.785748   -0.012019   -0.007073   -0.021685   -0.284796
N    -0.755106    0.576617   -0.047054   -0.001114   -0.005881   -0.069938
C     0.493057    1.236840    0.033911    0.010669    0.031130    0.409785
O    -2.120632   -1.253489    0.179995    0.002201    0.007273    0.094388
O     0.544103    2.442638   -0.235778   -0.002313   -0.008134   -0.107153
H     2.223864   -1.756932   -0.066467   -0.009675   -0.029166   -0.418352
H     0.016474   -2.564387    0.027720   -0.012202   -0.035951   -0.478826
H    -1.578323    1.180148    0.006910    0.005642    0.012987    0.162179
H     2.614325    0.688839   -0.728723   -0.046900   -0.133392   -1.787336
12
* Frequency(15)  735.0191
C     1.625038    0.315473   -0.083063   -0.002230   -0.003236   -0.051069
C     1.415394   -1.012282    0.135070    0.006248    0.020776    0.268868
N     0.151153   -1.547583    0.103645   -0.000744   -0.002924   -0.027906
C    -1.004185   -0.785955   -0.014729   -0.007073   -0.021685   -0.284796
N    -0.755117    0.576561   -0.047719   -0.001114   -0.005881   -0.069938
C     0.493159    1.237137    0.037810    0.010669    0.031130    0.409785
O    -2.120612   -1.253420    0.180893    0.002201    0.007273    0.094388
O     0.544081    2.442561   -0.236797   -0.002313   -0.008134   -0.107153
H     2.223772   -1.757210   -0.070448   -0.009675   -0.029166   -0.418352
H     0.016358   -2.564729    0.023164   -0.012202   -0.035951   -0.478826
H    -1.578270    1.180271    0.008454    0.005642    0.012987    0.162179
H     2.613879    0.687569   -0.745729   -0.046900   -0.133392   -1.787336
12
* Frequency(15)  735.0191
C     1.625101    0.315564   -0.081619   -0.002230   -0.003236   -0.051069
C     1.415218   -1.012869    0.127466    0.006248    0.020776    0.268868
N     0.151174   -1.547500    0.104435   -0.000744   -0.002924   -0.027906
C    -1.003985   -0.785341   -0.006674   -0.007073   -0.021685   -0.284796
N    -0.755086    0.576727   -0.045741   -0.001114   -0.005881   -0.069938
C     0.492857    1.236256    0.026220    0.010669    0.031130    0.409785
O    -2.120674   -1.253626    0.178224    0.002201    0.007273    0.094388
O     0.544147    2.442791   -0.233767   -0.002313   -0.008134   -0.107153
H     2.224045   -1.756385   -0.058615   -0.009675   -0.029166   -0.418352
H     0.016703   -2.563712    0.036707   -0.012202   -0.035951   -0.478826
H    -1.578429    1.179904    0.003866    0.005642    0.012987    0.162179
H     2.615205    0.691342   -0.695176   -0.046900   -0.133392   -1.787336
12
* Frequency(15)  735.0191
C     1.625241    0.315768   -0.078401   -0.002230   -0.003236   -0.051069
C     1.414824   -1.014178    0.110522    0.006248    0.020776    0.268868
N     0.151221   -1.547316    0.106193   -0.000744   -0.002924   -0.027906
C    -1.003539   -0.783975    0.011273   -0.007073   -0.021685   -0.284796
N    -0.755015    0.577098   -0.041334   -0.001114   -0.005881   -0.069938
C     0.492185    1.234294    0.000396    0.010669    0.031130    0.409785
O    -2.120813   -1.254084    0.172275    0.002201    0.007273    0.094388
O     0.544292    2.443304   -0.227014   -0.002313   -0.008134   -0.107153
H     2.224655   -1.754547   -0.032251   -0.009675   -0.029166   -0.418352
H     0.017472   -2.561447    0.066882   -0.012202   -0.035951   -0.478826
H    -1.578785    1.179086   -0.006354    0.005642    0.012987    0.162179
H     2.618161    0.699748   -0.582543   -0.046900   -0.133392   -1.787336
12
* Frequency(15)  735.0191
C     1.625444    0.316062   -0.073757   -0.002230   -0.003236   -0.051069
C     1.414256   -1.016067    0.086076    0.006248    0.020776    0.268868
N     0.151288   -1.547050    0.108730   -0.000744   -0.002924   -0.027906
C    -1.002896   -0.782003    0.037168   -0.007073   -0.021685   -0.284796
N    -0.754914    0.577632   -0.034975   -0.001114   -0.005881   -0.069938
C     0.491214    1.231464   -0.036862    0.010669    0.031130    0.409785
O    -2.121013   -1.254745    0.163694    0.002201    0.007273    0.094388
O     0.544503    2.444043   -0.217272   -0.002313   -0.008134   -0.107153
H     2.225535   -1.751895    0.005786   -0.009675   -0.029166   -0.418352
H     0.018582   -2.558178    0.110417   -0.012202   -0.035951   -0.478826
H    -1.579298    1.177905   -0.021099    0.005642    0.012987    0.162179
H     2.622425    0.711876   -0.420035   -0.046900   -0.133392   -1.787336
12
* Frequency(15)  735.0191
C     1.625687    0.316415   -0.068192   -0.002230   -0.003236   -0.051069
C     1.413575   -1.018332    0.056777    0.006248    0.020776    0.268868
N     0.151369   -1.546732    0.111771   -0.000744   -0.002924   -0.027906
C    -1.002125   -0.779640    0.068203   -0.007073   -0.021685   -0.284796
N    -0.754793    0.578273   -0.027354   -0.001114   -0.005881   -0.069938
C     0.490052    1.228072   -0.081518    0.010669    0.031130    0.409785
O    -2.121253   -1.255538    0.153408    0.002201    0.007273    0.094388
O     0.544755    2.444929   -0.205595   -0.002313   -0.008134   -0.107153
H     2.226589   -1.748717    0.051375   -0.009675   -0.029166   -0.418352
H     0.019911   -2.554260    0.162597   -0.012202   -0.035951   -0.478826
H    -1.579912    1.176490   -0.038773    0.005642    0.012987    0.162179
H     2.627536    0.726413   -0.225263   -0.046900   -0.133392   -1.787336
12
* Frequency(15)  735.0191
C     1.625944    0.316788   -0.062308   -0.002230   -0.003236   -0.051069
C     1.412855   -1.020725    0.025799    0.006248    0.020776    0.268868
N     0.151455   -1.546395    0.114987   -0.000744   -0.002924   -0.027906
C    -1.001310   -0.777141    0.101016   -0.007073   -0.021685   -0.284796
N    -0.754664    0.578951   -0.019296   -0.001114   -0.005881   -0.069938
C     0.488823    1.224485   -0.128732    0.010669    0.031130    0.409785
O    -2.121506   -1.256376    0.142533    0.002201    0.007273    0.094388
O     0.545021    2.445867   -0.193249   -0.002313   -0.008134   -0.107153
H     2.227704   -1.745356    0.099576   -0.009675   -0.029166   -0.418352
H     0.021317   -2.550118    0.217765   -0.012202   -0.035951   -0.478826
H    -1.580562    1.174993   -0.057458    0.005642    0.012987    0.162179
H     2.632939    0.741782   -0.019333   -0.046900   -0.133392   -1.787336
12
* Frequency(15)  735.0191
C     1.626187    0.317141   -0.056743   -0.002230   -0.003236   -0.051069
C     1.412174   -1.022989   -0.003500    0.006248    0.020776    0.268868
N     0.151536   -1.546076    0.118028   -0.000744   -0.002924   -0.027906
C    -1.000539   -0.774778    0.132051   -0.007073   -0.021685   -0.284796
N    -0.754543    0.579592   -0.011674   -0.001114   -0.005881   -0.069938
C     0.487660    1.221093   -0.173388    0.010669    0.031130    0.409785
O    -2.121746   -1.257168    0.132247    0.002201    0.007273    0.094388
O     0.545273    2.446753   -0.181572   -0.002313   -0.008134   -0.107153
H     2.228758   -1.742178    0.145165   -0.009675   -0.029166   -0.418352
H     0.022647   -2.546200    0.269945   -0.012202   -0.035951   -0.478826
H    -1.581177    1.173578   -0.075132    0.005642    0.012987    0.162179
H     2.638050    0.756318    0.175440   -0.046900   -0.133392   -1.787336
12
* Frequency(15)  735.0191
C     1.626390    0.317435   -0.052100   -0.002230   -0.003236   -0.051069
C     1.411606   -1.024878   -0.027946    0.006248    0.020776    0.268868
N     0.151604   -1.545810    0.120565   -0.000744   -0.002924   -0.027906
C    -0.999896   -0.772807    0.157945   -0.007073   -0.021685   -0.284796
N    -0.754441    0.580127   -0.005315   -0.001114   -0.005881   -0.069938
C     0.486690    1.218262   -0.210646    0.010669    0.031130    0.409785
O    -2.121946   -1.257829    0.123665    0.002201    0.007273    0.094388
O     0.545483    2.447492   -0.171830   -0.002313   -0.008134   -0.107153
H     2.229638   -1.739526    0.183203   -0.009675   -0.029166   -0.418352
H     0.023756   -2.542931    0.313480   -0.012202   -0.035951   -0.478826
H    -1.581690    1.172397   -0.089877    0.005642    0.012987    0.162179
H     2.642315    0.768446    0.337947   -0.046900   -0.133392   -1.787336
12
* Frequency(15)  735.0191
C     1.626530    0.317639   -0.048881   -0.002230   -0.003236   -0.051069
C     1.411212   -1.026188   -0.044890    0.006248    0.020776    0.268868
N     0.151650   -1.545626    0.122323   -0.000744   -0.002924   -0.027906
C    -0.999451   -0.771440    0.175892   -0.007073   -0.021685   -0.284796
N    -0.754371    0.580497   -0.000908   -0.001114   -0.005881   -0.069938
C     0.486018    1.216301   -0.236470    0.010669    0.031130    0.409785
O    -2.122085   -1.258288    0.117717    0.002201    0.007273    0.094388
O     0.545629    2.448005   -0.165077   -0.002313   -0.008134   -0.107153
H     2.230247   -1.737688    0.209566   -0.009675   -0.029166   -0.418352
H     0.024525   -2.540666    0.343655   -0.012202   -0.035951   -0.478826
H    -1.582046    1.171579   -0.100097    0.005642    0.012987    0.162179
H     2.645270    0.776852    0.450581   -0.046900   -0.133392   -1.787336
12
* Frequency(15)  735.0191
C     1.626593    0.317730   -0.047437   -0.002230   -0.003236   -0.051069
C     1.411036   -1.026775   -0.052494    0.006248    0.020776    0.268868
N     0.151671   -1.545544    0.123113   -0.000744   -0.002924   -0.027906
C    -0.999251   -0.770827    0.183948   -0.007073   -0.021685   -0.284796
N    -0.754340    0.580664    0.001070   -0.001114   -0.005881   -0.069938
C     0.485716    1.215420   -0.248060    0.010669    0.031130    0.409785
O    -2.122147   -1.258493    0.115047    0.002201    0.007273    0.094388
O     0.545695    2.448235   -0.162046   -0.002313   -0.008134   -0.107153
H     2.230521   -1.736863    0.221399   -0.009675   -0.029166   -0.418352
H     0.024871   -2.539649    0.357198   -0.012202   -0.035951   -0.478826
H    -1.582205    1.171211   -0.104684    0.005642    0.012987    0.162179
H     2.646597    0.780625    0.501133   -0.046900   -0.133392   -1.787336
12
* Frequency(15)  735.0191
C     1.626572    0.317699   -0.047923   -0.002230   -0.003236   -0.051069
C     1.411095   -1.026578   -0.049936    0.006248    0.020776    0.268868
N     0.151664   -1.545571    0.122847   -0.000744   -0.002924   -0.027906
C    -0.999318   -0.771033    0.181238   -0.007073   -0.021685   -0.284796
N    -0.754350    0.580608    0.000405   -0.001114   -0.005881   -0.069938
C     0.485817    1.215716   -0.244161    0.010669    0.031130    0.409785
O    -2.122126   -1.258424    0.115945    0.002201    0.007273    0.094388
O     0.545673    2.448158   -0.163066   -0.002313   -0.008134   -0.107153
H     2.230429   -1.737140    0.217418   -0.009675   -0.029166   -0.418352
H     0.024754   -2.539991    0.352642   -0.012202   -0.035951   -0.478826
H    -1.582152    1.171335   -0.103141    0.005642    0.012987    0.162179
H     2.646150    0.779356    0.484128   -0.046900   -0.133392   -1.787336
12
* Frequency(15)  735.0191
C     1.626469    0.317550   -0.050286   -0.002230   -0.003236   -0.051069
C     1.411384   -1.025616   -0.037493    0.006248    0.020776    0.268868
N     0.151630   -1.545707    0.121556   -0.000744   -0.002924   -0.027906
C    -0.999645   -0.772037    0.168057   -0.007073   -0.021685   -0.284796
N    -0.754402    0.580336   -0.002832   -0.001114   -0.005881   -0.069938
C     0.486311    1.217157   -0.225195    0.010669    0.031130    0.409785
O    -2.122024   -1.258088    0.120314    0.002201    0.007273    0.094388
O     0.545566    2.447781   -0.168025   -0.002313   -0.008134   -0.107153
H     2.229981   -1.738490    0.198056   -0.009675   -0.029166   -0.418352
H     0.024190   -2.541655    0.330481   -0.012202   -0.035951   -0.478826
H    -1.581890    1.171936   -0.095635    0.005642    0.012987    0.162179
H     2.643980    0.773182    0.401407   -0.046900   -0.133392   -1.787336
12
* Frequency(15)  735.0191
C     1.626295    0.317297   -0.054272   -0.002230   -0.003236   -0.051069
C     1.411872   -1.023995   -0.016512    0.006248    0.020776    0.268868
N     0.151572   -1.545935    0.119378   -0.000744   -0.002924   -0.027906
C    -1.000197   -0.773729    0.145833   -0.007073   -0.021685   -0.284796
N    -0.754489    0.579877   -0.008290   -0.001114   -0.005881   -0.069938
C     0.487144    1.219586   -0.193218    0.010669    0.031130    0.409785
O    -2.121853   -1.257520    0.127679    0.002201    0.007273    0.094388
O     0.545385    2.447147   -0.176387   -0.002313   -0.008134   -0.107153
H     2.229226   -1.740766    0.165411   -0.009675   -0.029166   -0.418352
H     0.023237   -2.544460    0.293116   -0.012202   -0.035951   -0.478826
H    -1.581450    1.172949   -0.082980    0.005642    0.012987    0.162179
H     2.640320    0.762773    0.261934   -0.046900   -0.133392   -1.787336
12
* Frequency(15)  735.0191
C     1.626069    0.316969   -0.059446   -0.002230   -0.003236   -0.051069
C     1.412505   -1.021890    0.010733    0.006248    0.020776    0.268868
N     0.151497   -1.546231    0.116550   -0.000744   -0.002924   -0.027906
C    -1.000914   -0.775926    0.116975   -0.007073   -0.021685   -0.284796
N    -0.754602    0.579281   -0.015377   -0.001114   -0.005881   -0.069938
C     0.488225    1.222741   -0.151695    0.010669    0.031130    0.409785
O    -2.121630   -1.256783    0.137243    0.002201    0.007273    0.094388
O     0.545151    2.446322   -0.187245   -0.002313   -0.008134   -0.107153
H     2.228246   -1.743722    0.123019   -0.009675   -0.029166   -0.418352
H     0.022001   -2.548103    0.244597   -0.012202   -0.035951   -0.478826
H    -1.580879    1.174265   -0.066546    0.005642    0.012987    0.162179
H     2.635568    0.749256    0.080824   -0.046900   -0.133392   -1.787336
12
* Frequency(15)  735.0191
C     1.625816    0.316601   -0.065250   -0.002230   -0.003236   -0.051069
C     1.413215   -1.019528    0.041288    0.006248    0.020776    0.268868
N     0.151412   -1.546563    0.113379   -0.000744   -0.002924   -0.027906
C    -1.001718   -0.778391    0.084609   -0.007073   -0.021685   -0.284796
N    -0.754728    0.578612   -0.023325   -0.001114   -0.005881   -0.069938
C     0.489437    1.226278   -0.105125    0.010669    0.031130    0.409785
O    -2.121379   -1.255957    0.147970    0.002201    0.007273    0.094388
O     0.544888    2.445398   -0.199422   -0.002313   -0.008134   -0.107153
H     2.227146   -1.747036    0.075476   -0.009675   -0.029166   -0.418352
H     0.020614   -2.552189    0.190181   -0.012202   -0.035951   -0.478826
H    -1.580237    1.175741   -0.048115    0.005642    0.012987    0.162179
H     2.630238    0.734097   -0.122298   -0.046900   -0.133392   -1.787336
