12
* (null), Energy   -1000.0000000
C     1.625816    0.316601   -0.065250   -0.001007    0.000513   -0.000014
C     1.413215   -1.019528    0.041288    0.000108    0.000413   -0.000032
N     0.151412   -1.546563    0.113379   -0.001601   -0.002428    0.000216
C    -1.001718   -0.778391    0.084609   -0.000154    0.001833   -0.000139
N    -0.754728    0.578612   -0.023325    0.118993   -0.087165    0.003651
C     0.489437    1.226278   -0.105125   -0.001322   -0.000280    0.000063
O    -2.121379   -1.255957    0.147970    0.000488    0.000160   -0.000023
O     0.544888    2.445398   -0.199422    0.000072   -0.000381    0.000023
H     2.227146   -1.747036    0.075476    0.000605   -0.000606    0.000037
H     0.020614   -2.552189    0.190181    0.004860    0.051119   -0.003870
H    -1.580237    1.175741   -0.048115   -1.614965    1.168372   -0.048490
H     2.630238    0.734097   -0.122298   -0.002368    0.000042    0.000057
12
* Frequency(34) 3574.1840
C     1.625701    0.316660   -0.065252   -0.001007    0.000513   -0.000014
C     1.413227   -1.019482    0.041284    0.000108    0.000413   -0.000032
N     0.151230   -1.546839    0.113403   -0.001601   -0.002428    0.000216
C    -1.001735   -0.778182    0.084593   -0.000154    0.001833   -0.000139
N    -0.741205    0.568706   -0.022910    0.118993   -0.087165    0.003651
C     0.489287    1.226247   -0.105118   -0.001322   -0.000280    0.000063
O    -2.121324   -1.255939    0.147968    0.000488    0.000160   -0.000023
O     0.544896    2.445355   -0.199419    0.000072   -0.000381    0.000023
H     2.227215   -1.747105    0.075480    0.000605   -0.000606    0.000037
H     0.021167   -2.546380    0.189741    0.004860    0.051119   -0.003870
H    -1.763770    1.308521   -0.053626   -1.614965    1.168372   -0.048490
H     2.629968    0.734102   -0.122291   -0.002368    0.000042    0.000057
12
* Frequency(34) 3574.1840
C     1.625599    0.316712   -0.065253   -0.001007    0.000513   -0.000014
C     1.413238   -1.019440    0.041281    0.000108    0.000413   -0.000032
N     0.151068   -1.547085    0.113425   -0.001601   -0.002428    0.000216
C    -1.001751   -0.777997    0.084579   -0.000154    0.001833   -0.000139
N    -0.729148    0.559874   -0.022540    0.118993   -0.087165    0.003651
C     0.489153    1.226218   -0.105111   -0.001322   -0.000280    0.000063
O    -2.121275   -1.255922    0.147965    0.000488    0.000160   -0.000023
O     0.544903    2.445316   -0.199417    0.000072   -0.000381    0.000023
H     2.227276   -1.747167    0.075483    0.000605   -0.000606    0.000037
H     0.021659   -2.541200    0.189349    0.004860    0.051119   -0.003870
H    -1.927414    1.426912   -0.058539   -1.614965    1.168372   -0.048490
H     2.629729    0.734106   -0.122285   -0.002368    0.000042    0.000057
12
* Frequency(34) 3574.1840
C     1.625521    0.316752   -0.065254   -0.001007    0.000513   -0.000014
C     1.413247   -1.019407    0.041279    0.000108    0.000413   -0.000032
N     0.150943   -1.547275    0.113442   -0.001601   -0.002428    0.000216
C    -1.001763   -0.777854    0.084568   -0.000154    0.001833   -0.000139
N    -0.719862    0.553072   -0.022255    0.118993   -0.087165    0.003651
C     0.489050    1.226196   -0.105106   -0.001322   -0.000280    0.000063
O    -2.121236   -1.255910    0.147963    0.000488    0.000160   -0.000023
O     0.544909    2.445286   -0.199415    0.000072   -0.000381    0.000023
H     2.227324   -1.747214    0.075486    0.000605   -0.000606    0.000037
H     0.022038   -2.537211    0.189047    0.004860    0.051119   -0.003870
H    -2.053435    1.518084   -0.062323   -1.614965    1.168372   -0.048490
H     2.629544    0.734109   -0.122281   -0.002368    0.000042    0.000057
12
* Frequency(34) 3574.1840
C     1.625474    0.316776   -0.065255   -0.001007    0.000513   -0.000014
C     1.413252   -1.019388    0.041277    0.000108    0.000413   -0.000032
N     0.150869   -1.547387    0.113452   -0.001601   -0.002428    0.000216
C    -1.001770   -0.777769    0.084562   -0.000154    0.001833   -0.000139
N    -0.714355    0.549038   -0.022086    0.118993   -0.087165    0.003651
C     0.488989    1.226183   -0.105103   -0.001322   -0.000280    0.000063
O    -2.121214   -1.255902    0.147962    0.000488    0.000160   -0.000023
O     0.544912    2.445269   -0.199414    0.000072   -0.000381    0.000023
H     2.227352   -1.747242    0.075488    0.000605   -0.000606    0.000037
H     0.022263   -2.534845    0.188868    0.004860    0.051119   -0.003870
H    -2.128179    1.572158   -0.064567   -1.614965    1.168372   -0.048490
H     2.629434    0.734111   -0.122278   -0.002368    0.000042    0.000057
12
* Frequency(34) 3574.1840
C     1.625464    0.316781   -0.065255   -0.001007    0.000513   -0.000014
C     1.413253   -1.019384    0.041277    0.000108    0.000413   -0.000032
N     0.150854   -1.547410    0.113454   -0.001601   -0.002428    0.000216
C    -1.001771   -0.777751    0.084561   -0.000154    0.001833   -0.000139
N    -0.713223    0.548209   -0.022051    0.118993   -0.087165    0.003651
C     0.488976    1.226181   -0.105103   -0.001322   -0.000280    0.000063
O    -2.121209   -1.255901    0.147962    0.000488    0.000160   -0.000023
O     0.544913    2.445265   -0.199414    0.000072   -0.000381    0.000023
H     2.227357   -1.747248    0.075488    0.000605   -0.000606    0.000037
H     0.022310   -2.534359    0.188831    0.004860    0.051119   -0.003870
H    -2.143545    1.583275   -0.065029   -1.614965    1.168372   -0.048490
H     2.629412    0.734112   -0.122278   -0.002368    0.000042    0.000057
12
* Frequency(34) 3574.1840
C     1.625493    0.316766   -0.065255   -0.001007    0.000513   -0.000014
C     1.413250   -1.019396    0.041278    0.000108    0.000413   -0.000032
N     0.150899   -1.547341    0.113448   -0.001601   -0.002428    0.000216
C    -1.001767   -0.777803    0.084565   -0.000154    0.001833   -0.000139
N    -0.716589    0.550674   -0.022154    0.118993   -0.087165    0.003651
C     0.489013    1.226189   -0.105105   -0.001322   -0.000280    0.000063
O    -2.121223   -1.255905    0.147963    0.000488    0.000160   -0.000023
O     0.544911    2.445276   -0.199415    0.000072   -0.000381    0.000023
H     2.227340   -1.747231    0.075487    0.000605   -0.000606    0.000037
H     0.022172   -2.535804    0.188940    0.004860    0.051119   -0.003870
H    -2.097867    1.550229   -0.063657   -1.614965    1.168372   -0.048490
H     2.629479    0.734110   -0.122279   -0.002368    0.000042    0.000057
12
* Frequency(34) 3574.1840
C     1.625556    0.316734   -0.065254   -0.001007    0.000513   -0.000014
C     1.413243   -1.019422    0.041280    0.000108    0.000413   -0.000032
N     0.151000   -1.547188    0.113435   -0.001601   -0.002428    0.000216
C    -1.001757   -0.777919    0.084573   -0.000154    0.001833   -0.000139
N    -0.724087    0.556167   -0.022384    0.118993   -0.087165    0.003651
C     0.489097    1.226206   -0.105109   -0.001322   -0.000280    0.000063
O    -2.121254   -1.255916    0.147964    0.000488    0.000160   -0.000023
O     0.544906    2.445300   -0.199416    0.000072   -0.000381    0.000023
H     2.227302   -1.747192    0.075485    0.000605   -0.000606    0.000037
H     0.021866   -2.539026    0.189184    0.004860    0.051119   -0.003870
H    -1.996096    1.476601   -0.060602   -1.614965    1.168372   -0.048490
H     2.629628    0.734108   -0.122283   -0.002368    0.000042    0.000057
12
* Frequency(34) 3574.1840
C     1.625648    0.316687   -0.065252   -0.001007    0.000513   -0.000014
C     1.413233   -1.019460    0.041283    0.000108    0.000413   -0.000032
N     0.151145   -1.546968    0.113415   -0.001601   -0.002428    0.000216
C    -1.001743   -0.778085    0.084586   -0.000154    0.001833   -0.000139
N    -0.734906    0.564092   -0.022716    0.118993   -0.087165    0.003651
C     0.489217    1.226232   -0.105114   -0.001322   -0.000280    0.000063
O    -2.121298   -1.255930    0.147966    0.000488    0.000160   -0.000023
O     0.544900    2.445334   -0.199418    0.000072   -0.000381    0.000023
H     2.227247   -1.747137    0.075482    0.000605   -0.000606    0.000037
H     0.021424   -2.543674    0.189536    0.004860    0.051119   -0.003870
H    -1.849261    1.370371   -0.056193   -1.614965    1.168372   -0.048490
H     2.629843    0.734104   -0.122288   -0.002368    0.000042    0.000057
12
* Frequency(34) 3574.1840
C     1.625758    0.316631   -0.065251   -0.001007    0.000513   -0.000014
C     1.413221   -1.019505    0.041286    0.000108    0.000413   -0.000032
N     0.151320   -1.546703    0.113391   -0.001601   -0.002428    0.000216
C    -1.001727   -0.778285    0.084601   -0.000154    0.001833   -0.000139
N    -0.747873    0.573591   -0.023114    0.118993   -0.087165    0.003651
C     0.489361    1.226262   -0.105121   -0.001322   -0.000280    0.000063
O    -2.121351   -1.255948    0.147969    0.000488    0.000160   -0.000023
O     0.544892    2.445376   -0.199421    0.000072   -0.000381    0.000023
H     2.227181   -1.747071    0.075478    0.000605   -0.000606    0.000037
H     0.020894   -2.549244    0.189958    0.004860    0.051119   -0.003870
H    -1.673272    1.243049   -0.050909   -1.614965    1.168372   -0.048490
H     2.630101    0.734100   -0.122294   -0.002368    0.000042    0.000057
12
* Frequency(34) 3574.1840
C     1.625874    0.316572   -0.065249   -0.001007    0.000513   -0.000014
C     1.413209   -1.019552    0.041290    0.000108    0.000413   -0.000032
N     0.151504   -1.546423    0.113367   -0.001601   -0.002428    0.000216
C    -1.001709   -0.778496    0.084617   -0.000154    0.001833   -0.000139
N    -0.761583    0.583634   -0.023535    0.118993   -0.087165    0.003651
C     0.489513    1.226294   -0.105129   -0.001322   -0.000280    0.000063
O    -2.121407   -1.255966    0.147972    0.000488    0.000160   -0.000023
O     0.544884    2.445420   -0.199423    0.000072   -0.000381    0.000023
H     2.227111   -1.747001    0.075473    0.000605   -0.000606    0.000037
H     0.020334   -2.555134    0.190404    0.004860    0.051119   -0.003870
H    -1.487202    1.108434   -0.045322   -1.614965    1.168372   -0.048490
H     2.630374    0.734095   -0.122301   -0.002368    0.000042    0.000057
12
* Frequency(34) 3574.1840
C     1.625983    0.316516   -0.065248   -0.001007    0.000513   -0.000014
C     1.413197   -1.019597    0.041293    0.000108    0.000413   -0.000032
N     0.151679   -1.546159    0.113343   -0.001601   -0.002428    0.000216
C    -1.001692   -0.778696    0.084633   -0.000154    0.001833   -0.000139
N    -0.774550    0.593132   -0.023933    0.118993   -0.087165    0.003651
C     0.489657    1.226325   -0.105135   -0.001322   -0.000280    0.000063
O    -2.121461   -1.255983    0.147974    0.000488    0.000160   -0.000023
O     0.544876    2.445461   -0.199426    0.000072   -0.000381    0.000023
H     2.227045   -1.746935    0.075469    0.000605   -0.000606    0.000037
H     0.019805   -2.560705    0.190826    0.004860    0.051119   -0.003870
H    -1.311214    0.981112   -0.040038   -1.614965    1.168372   -0.048490
H     2.630632    0.734090   -0.122307   -0.002368    0.000042    0.000057
12
* Frequency(34) 3574.1840
C     1.626075    0.316469   -0.065246   -0.001007    0.000513   -0.000014
C     1.413187   -1.019635    0.041296    0.000108    0.000413   -0.000032
N     0.151824   -1.545938    0.113323   -0.001601   -0.002428    0.000216
C    -1.001678   -0.778863    0.084645   -0.000154    0.001833   -0.000139
N    -0.785370    0.601057   -0.024265    0.118993   -0.087165    0.003651
C     0.489778    1.226350   -0.105141   -0.001322   -0.000280    0.000063
O    -2.121505   -1.255998    0.147976    0.000488    0.000160   -0.000023
O     0.544869    2.445496   -0.199428    0.000072   -0.000381    0.000023
H     2.226990   -1.746880    0.075466    0.000605   -0.000606    0.000037
H     0.019363   -2.565352    0.191178    0.004860    0.051119   -0.003870
H    -1.164379    0.874882   -0.035629   -1.614965    1.168372   -0.048490
H     2.630847    0.734086   -0.122312   -0.002368    0.000042    0.000057
12
* Frequency(34) 3574.1840
C     1.626138    0.316437   -0.065246   -0.001007    0.000513   -0.000014
C     1.413181   -1.019661    0.041298    0.000108    0.000413   -0.000032
N     0.151925   -1.545785    0.113310   -0.001601   -0.002428    0.000216
C    -1.001668   -0.778978    0.084654   -0.000154    0.001833   -0.000139
N    -0.792868    0.606550   -0.024495    0.118993   -0.087165    0.003651
C     0.489861    1.226368   -0.105145   -0.001322   -0.000280    0.000063
O    -2.121536   -1.256008    0.147978    0.000488    0.000160   -0.000023
O     0.544865    2.445520   -0.199429    0.000072   -0.000381    0.000023
H     2.226952   -1.746842    0.075464    0.000605   -0.000606    0.000037
H     0.019056   -2.568574    0.191421    0.004860    0.051119   -0.003870
H    -1.062608    0.801254   -0.032573   -1.614965    1.168372   -0.048490
H     2.630997    0.734084   -0.122316   -0.002368    0.000042    0.000057
12
* Frequency(34) 3574.1840
C     1.626167    0.316422   -0.065245   -0.001007    0.000513   -0.000014
C     1.413177   -1.019672    0.041299    0.000108    0.000413   -0.000032
N     0.151970   -1.545717    0.113304   -0.001601   -0.002428    0.000216
C    -1.001664   -0.779030    0.084658   -0.000154    0.001833   -0.000139
N    -0.796234    0.609016   -0.024598    0.118993   -0.087165    0.003651
C     0.489898    1.226376   -0.105147   -0.001322   -0.000280    0.000063
O    -2.121550   -1.256013    0.147978    0.000488    0.000160   -0.000023
O     0.544863    2.445531   -0.199430    0.000072   -0.000381    0.000023
H     2.226935   -1.746825    0.075463    0.000605   -0.000606    0.000037
H     0.018919   -2.570020    0.191531    0.004860    0.051119   -0.003870
H    -1.016930    0.768208   -0.031202   -1.614965    1.168372   -0.048490
H     2.631064    0.734083   -0.122318   -0.002368    0.000042    0.000057
12
* Frequency(34) 3574.1840
C     1.626157    0.316427   -0.065245   -0.001007    0.000513   -0.000014
C     1.413178   -1.019668    0.041299    0.000108    0.000413   -0.000032
N     0.151955   -1.545740    0.113306   -0.001601   -0.002428    0.000216
C    -1.001666   -0.779013    0.084657   -0.000154    0.001833   -0.000139
N    -0.795102    0.608186   -0.024563    0.118993   -0.087165    0.003651
C     0.489886    1.226373   -0.105146   -0.001322   -0.000280    0.000063
O    -2.121545   -1.256011    0.147978    0.000488    0.000160   -0.000023
O     0.544863    2.445527   -0.199430    0.000072   -0.000381    0.000023
H     2.226941   -1.746831    0.075463    0.000605   -0.000606    0.000037
H     0.018965   -2.569533    0.191494    0.004860    0.051119   -0.003870
H    -1.032296    0.779324   -0.031663   -1.614965    1.168372   -0.048490
H     2.631041    0.734083   -0.122317   -0.002368    0.000042    0.000057
12
* Frequency(34) 3574.1840
C     1.626110    0.316451   -0.065246   -0.001007    0.000513   -0.000014
C     1.413183   -1.019649    0.041297    0.000108    0.000413   -0.000032
N     0.151881   -1.545852    0.113316   -0.001601   -0.002428    0.000216
C    -1.001673   -0.778928    0.084650   -0.000154    0.001833   -0.000139
N    -0.789594    0.604152   -0.024394    0.118993   -0.087165    0.003651
C     0.489825    1.226360   -0.105143   -0.001322   -0.000280    0.000063
O    -2.121522   -1.256004    0.147977    0.000488    0.000160   -0.000023
O     0.544867    2.445510   -0.199429    0.000072   -0.000381    0.000023
H     2.226969   -1.746859    0.075465    0.000605   -0.000606    0.000037
H     0.019190   -2.567167    0.191315    0.004860    0.051119   -0.003870
H    -1.107039    0.833399   -0.033908   -1.614965    1.168372   -0.048490
H     2.630931    0.734085   -0.122314   -0.002368    0.000042    0.000057
12
* Frequency(34) 3574.1840
C     1.626032    0.316491   -0.065247   -0.001007    0.000513   -0.000014
C     1.413192   -1.019617    0.041295    0.000108    0.000413   -0.000032
N     0.151756   -1.546041    0.113333   -0.001601   -0.002428    0.000216
C    -1.001685   -0.778785    0.084639   -0.000154    0.001833   -0.000139
N    -0.780309    0.597350   -0.024109    0.118993   -0.087165    0.003651
C     0.489721    1.226338   -0.105138   -0.001322   -0.000280    0.000063
O    -2.121484   -1.255991    0.147975    0.000488    0.000160   -0.000023
O     0.544872    2.445480   -0.199427    0.000072   -0.000381    0.000023
H     2.227016   -1.746906    0.075468    0.000605   -0.000606    0.000037
H     0.019569   -2.563178    0.191013    0.004860    0.051119   -0.003870
H    -1.233061    0.924571   -0.037691   -1.614965    1.168372   -0.048490
H     2.630747    0.734088   -0.122310   -0.002368    0.000042    0.000057
12
* Frequency(34) 3574.1840
C     1.625930    0.316543   -0.065249   -0.001007    0.000513   -0.000014
C     1.413203   -1.019575    0.041292    0.000108    0.000413   -0.000032
N     0.151594   -1.546287    0.113354   -0.001601   -0.002428    0.000216
C    -1.001700   -0.778599    0.084625   -0.000154    0.001833   -0.000139
N    -0.768251    0.588518   -0.023740    0.118993   -0.087165    0.003651
C     0.489588    1.226310   -0.105132   -0.001322   -0.000280    0.000063
O    -2.121435   -1.255975    0.147973    0.000488    0.000160   -0.000023
O     0.544880    2.445441   -0.199425    0.000072   -0.000381    0.000023
H     2.227077   -1.746967    0.075471    0.000605   -0.000606    0.000037
H     0.020062   -2.557998    0.190621    0.004860    0.051119   -0.003870
H    -1.396705    1.042962   -0.042605   -1.614965    1.168372   -0.048490
H     2.630507    0.734092   -0.122304   -0.002368    0.000042    0.000057
12
* Frequency(34) 3574.1840
C     1.625816    0.316601   -0.065250   -0.001007    0.000513   -0.000014
C     1.413215   -1.019528    0.041288    0.000108    0.000413   -0.000032
N     0.151412   -1.546563    0.113379   -0.001601   -0.002428    0.000216
C    -1.001718   -0.778391    0.084609   -0.000154    0.001833   -0.000139
N    -0.754728    0.578612   -0.023325    0.118993   -0.087165    0.003651
C     0.489437    1.226278   -0.105125   -0.001322   -0.000280    0.000063
O    -2.121379   -1.255957    0.147970    0.000488    0.000160   -0.000023
O     0.544888    2.445398   -0.199422    0.000072   -0.000381    0.000023
H     2.227146   -1.747036    0.075476    0.000605   -0.000606    0.000037
H     0.020614   -2.552189    0.190181    0.004860    0.051119   -0.003870
H    -1.580237    1.175741   -0.048115   -1.614965    1.168372   -0.048490
H     2.630238    0.734097   -0.122298   -0.002368    0.000042    0.000057
