12
* (null), Energy   -1000.0000000
C     1.625816    0.316601   -0.065250   -0.493530   -0.001551    0.010216
C     1.413215   -1.019528    0.041288    0.184107   -0.071967    0.003873
N     0.151412   -1.546563    0.113379    0.112946   -0.021680   -0.001965
C    -1.001718   -0.778391    0.084609   -0.181301    0.099950   -0.002032
N    -0.754728    0.578612   -0.023325    0.405309    0.162452   -0.021775
C     0.489437    1.226278   -0.105125    0.090570   -0.083239    0.003865
O    -2.121379   -1.255957    0.147970   -0.161996   -0.139619    0.014385
O     0.544888    2.445398   -0.199422   -0.048414   -0.062527    0.006323
H     2.227146   -1.747036    0.075476    0.623131    0.407193   -0.065916
H     0.020614   -2.552189    0.190181    0.063376   -0.019967    0.001559
H    -1.580237    1.175741   -0.048115    0.989324    0.954006   -0.112082
H     2.630238    0.734097   -0.122298   -0.769696    0.587981   -0.012085
12
* Frequency(19)  986.4151
C     1.569728    0.316425   -0.064089   -0.493530   -0.001551    0.010216
C     1.434138   -1.027707    0.041728    0.184107   -0.071967    0.003873
N     0.164248   -1.549027    0.113156    0.112946   -0.021680   -0.001965
C    -1.022322   -0.767032    0.084378   -0.181301    0.099950   -0.002032
N    -0.708667    0.597074   -0.025799    0.405309    0.162452   -0.021775
C     0.499730    1.216819   -0.104686    0.090570   -0.083239    0.003865
O    -2.139789   -1.271824    0.149605   -0.161996   -0.139619    0.014385
O     0.539386    2.438292   -0.198703   -0.048414   -0.062527    0.006323
H     2.297962   -1.700761    0.067985    0.623131    0.407193   -0.065916
H     0.027817   -2.554458    0.190358    0.063376   -0.019967    0.001559
H    -1.467806    1.284159   -0.060853    0.989324    0.954006   -0.112082
H     2.542766    0.800918   -0.123671   -0.769696    0.587981   -0.012085
12
* Frequency(19)  986.4151
C     1.519719    0.316268   -0.063054   -0.493530   -0.001551    0.010216
C     1.452793   -1.034999    0.042120    0.184107   -0.071967    0.003873
N     0.175693   -1.551224    0.112957    0.112946   -0.021680   -0.001965
C    -1.040693   -0.756904    0.084173   -0.181301    0.099950   -0.002032
N    -0.667597    0.613535   -0.028006    0.405309    0.162452   -0.021775
C     0.508908    1.208384   -0.104294    0.090570   -0.083239    0.003865
O    -2.156204   -1.285971    0.151063   -0.161996   -0.139619    0.014385
O     0.534480    2.431956   -0.198063   -0.048414   -0.062527    0.006323
H     2.361104   -1.659500    0.061305    0.623131    0.407193   -0.065916
H     0.034239   -2.556482    0.190516    0.063376   -0.019967    0.001559
H    -1.367558    1.380828   -0.072210    0.989324    0.954006   -0.112082
H     2.464773    0.860498   -0.124896   -0.769696    0.587981   -0.012085
12
* Frequency(19)  986.4151
C     1.481207    0.316147   -0.062257   -0.493530   -0.001551    0.010216
C     1.467160   -1.040615    0.042423    0.184107   -0.071967    0.003873
N     0.184506   -1.552916    0.112803    0.112946   -0.021680   -0.001965
C    -1.054840   -0.749105    0.084014   -0.181301    0.099950   -0.002032
N    -0.635969    0.626212   -0.029705    0.405309    0.162452   -0.021775
C     0.515975    1.201889   -0.103992    0.090570   -0.083239    0.003865
O    -2.168846   -1.296866    0.152185   -0.161996   -0.139619    0.014385
O     0.530702    2.427077   -0.197569   -0.048414   -0.062527    0.006323
H     2.409729   -1.627725    0.056162    0.623131    0.407193   -0.065916
H     0.039184   -2.558040    0.190638    0.063376   -0.019967    0.001559
H    -1.290357    1.455273   -0.080956    0.989324    0.954006   -0.112082
H     2.404710    0.906380   -0.125839   -0.769696    0.587981   -0.012085
12
* Frequency(19)  986.4151
C     1.458366    0.316075   -0.061784   -0.493530   -0.001551    0.010216
C     1.475681   -1.043946    0.042602    0.184107   -0.071967    0.003873
N     0.189734   -1.553919    0.112712    0.112946   -0.021680   -0.001965
C    -1.063231   -0.744479    0.083920   -0.181301    0.099950   -0.002032
N    -0.617211    0.633731   -0.030713    0.405309    0.162452   -0.021775
C     0.520167    1.198036   -0.103813    0.090570   -0.083239    0.003865
O    -2.176343   -1.303328    0.152851   -0.161996   -0.139619    0.014385
O     0.528461    2.424183   -0.197277   -0.048414   -0.062527    0.006323
H     2.438569   -1.608880    0.053111    0.623131    0.407193   -0.065916
H     0.042117   -2.558964    0.190710    0.063376   -0.019967    0.001559
H    -1.244570    1.499426   -0.086144    0.989324    0.954006   -0.112082
H     2.369087    0.933593   -0.126398   -0.769696    0.587981   -0.012085
12
* Frequency(19)  986.4151
C     1.453670    0.316061   -0.061687   -0.493530   -0.001551    0.010216
C     1.477433   -1.044631    0.042639    0.184107   -0.071967    0.003873
N     0.190808   -1.554125    0.112694    0.112946   -0.021680   -0.001965
C    -1.064956   -0.743528    0.083901   -0.181301    0.099950   -0.002032
N    -0.613355    0.635276   -0.030920    0.405309    0.162452   -0.021775
C     0.521029    1.197244   -0.103777    0.090570   -0.083239    0.003865
O    -2.177884   -1.304657    0.152988   -0.161996   -0.139619    0.014385
O     0.528001    2.423588   -0.197216   -0.048414   -0.062527    0.006323
H     2.444497   -1.605006    0.052484    0.623131    0.407193   -0.065916
H     0.042720   -2.559154    0.190725    0.063376   -0.019967    0.001559
H    -1.235157    1.508503   -0.087210    0.989324    0.954006   -0.112082
H     2.361764    0.939187   -0.126513   -0.769696    0.587981   -0.012085
12
* Frequency(19)  986.4151
C     1.467629    0.316105   -0.061976   -0.493530   -0.001551    0.010216
C     1.472225   -1.042595    0.042529    0.184107   -0.071967    0.003873
N     0.187614   -1.553512    0.112749    0.112946   -0.021680   -0.001965
C    -1.059828   -0.746355    0.083958   -0.181301    0.099950   -0.002032
N    -0.624818    0.630681   -0.030304    0.405309    0.162452   -0.021775
C     0.518467    1.199599   -0.103886    0.090570   -0.083239    0.003865
O    -2.173302   -1.300708    0.152581   -0.161996   -0.139619    0.014385
O     0.529370    2.425357   -0.197395   -0.048414   -0.062527    0.006323
H     2.426873   -1.616523    0.054348    0.623131    0.407193   -0.065916
H     0.040928   -2.558589    0.190681    0.063376   -0.019967    0.001559
H    -1.263139    1.481520   -0.084040    0.989324    0.954006   -0.112082
H     2.383534    0.922557   -0.126171   -0.769696    0.587981   -0.012085
12
* Frequency(19)  986.4151
C     1.498730    0.316202   -0.062619   -0.493530   -0.001551    0.010216
C     1.460623   -1.038060    0.042285    0.184107   -0.071967    0.003873
N     0.180496   -1.552146    0.112873    0.112946   -0.021680   -0.001965
C    -1.048403   -0.752653    0.084086   -0.181301    0.099950   -0.002032
N    -0.650360    0.620444   -0.028932    0.405309    0.162452   -0.021775
C     0.512759    1.204844   -0.104130    0.090570   -0.083239    0.003865
O    -2.163094   -1.291909    0.151674   -0.161996   -0.139619    0.014385
O     0.532421    2.429297   -0.197794   -0.048414   -0.062527    0.006323
H     2.387605   -1.642183    0.058502    0.623131    0.407193   -0.065916
H     0.036934   -2.557331    0.190582    0.063376   -0.019967    0.001559
H    -1.325483    1.421401   -0.076977    0.989324    0.954006   -0.112082
H     2.432038    0.885504   -0.125410   -0.769696    0.587981   -0.012085
12
* Frequency(19)  986.4151
C     1.543603    0.316343   -0.063548   -0.493530   -0.001551    0.010216
C     1.443884   -1.031517    0.041933    0.184107   -0.071967    0.003873
N     0.170227   -1.550175    0.113052    0.112946   -0.021680   -0.001965
C    -1.031919   -0.761741    0.084271   -0.181301    0.099950   -0.002032
N    -0.687211    0.605674   -0.026952    0.405309    0.162452   -0.021775
C     0.504525    1.212412   -0.104481    0.090570   -0.083239    0.003865
O    -2.148365   -1.279215    0.150367   -0.161996   -0.139619    0.014385
O     0.536823    2.434982   -0.198369   -0.048414   -0.062527    0.006323
H     2.330948   -1.679205    0.064495    0.623131    0.407193   -0.065916
H     0.031172   -2.555515    0.190441    0.063376   -0.019967    0.001559
H    -1.415434    1.334661   -0.066786    0.989324    0.954006   -0.112082
H     2.502020    0.832044   -0.124311   -0.769696    0.587981   -0.012085
12
* Frequency(19)  986.4151
C     1.597384    0.316512   -0.064662   -0.493530   -0.001551    0.010216
C     1.423821   -1.023674    0.041511    0.184107   -0.071967    0.003873
N     0.157919   -1.547812    0.113266    0.112946   -0.021680   -0.001965
C    -1.012162   -0.772633    0.084492   -0.181301    0.099950   -0.002032
N    -0.731379    0.587971   -0.024579    0.405309    0.162452   -0.021775
C     0.494655    1.221483   -0.104902    0.090570   -0.083239    0.003865
O    -2.130712   -1.264000    0.148799   -0.161996   -0.139619    0.014385
O     0.542099    2.441796   -0.199058   -0.048414   -0.062527    0.006323
H     2.263044   -1.723579    0.071678    0.623131    0.407193   -0.065916
H     0.024265   -2.553339    0.190271    0.063376   -0.019967    0.001559
H    -1.523244    1.230700   -0.054572    0.989324    0.954006   -0.112082
H     2.585897    0.767970   -0.122994   -0.769696    0.587981   -0.012085
12
* Frequency(19)  986.4151
C     1.654247    0.316691   -0.065839   -0.493530   -0.001551    0.010216
C     1.402609   -1.015383    0.041065    0.184107   -0.071967    0.003873
N     0.144905   -1.545314    0.113492    0.112946   -0.021680   -0.001965
C    -0.991273   -0.784149    0.084726   -0.181301    0.099950   -0.002032
N    -0.778077    0.569254   -0.022070    0.405309    0.162452   -0.021775
C     0.484220    1.231074   -0.105348    0.090570   -0.083239    0.003865
O    -2.112047   -1.247914    0.147142   -0.161996   -0.139619    0.014385
O     0.547677    2.449000   -0.199786   -0.048414   -0.062527    0.006323
H     2.191249   -1.770494    0.079273    0.623131    0.407193   -0.065916
H     0.016963   -2.551039    0.190091    0.063376   -0.019967    0.001559
H    -1.637231    1.120783   -0.041659    0.989324    0.954006   -0.112082
H     2.674578    0.700225   -0.121601   -0.769696    0.587981   -0.012085
12
* Frequency(19)  986.4151
C     1.708029    0.316860   -0.066952   -0.493530   -0.001551    0.010216
C     1.382546   -1.007540    0.040643    0.184107   -0.071967    0.003873
N     0.132597   -1.542952    0.113706    0.112946   -0.021680   -0.001965
C    -0.971516   -0.795041    0.084948   -0.181301    0.099950   -0.002032
N    -0.822245    0.551551   -0.019697    0.405309    0.162452   -0.021775
C     0.474350    1.240144   -0.105769    0.090570   -0.083239    0.003865
O    -2.094394   -1.232699    0.145574   -0.161996   -0.139619    0.014385
O     0.552953    2.455814   -0.200475   -0.048414   -0.062527    0.006323
H     2.123344   -1.814867    0.086456    0.623131    0.407193   -0.065916
H     0.010057   -2.548863    0.189921    0.063376   -0.019967    0.001559
H    -1.745041    1.016822   -0.029445    0.989324    0.954006   -0.112082
H     2.758455    0.636150   -0.120284   -0.769696    0.587981   -0.012085
12
* Frequency(19)  986.4151
C     1.752901    0.317001   -0.067881   -0.493530   -0.001551    0.010216
C     1.365807   -1.000997    0.040291    0.184107   -0.071967    0.003873
N     0.122328   -1.540981    0.113885    0.112946   -0.021680   -0.001965
C    -0.955032   -0.804128    0.085133   -0.181301    0.099950   -0.002032
N    -0.859097    0.536780   -0.017717    0.405309    0.162452   -0.021775
C     0.466115    1.247713   -0.106120    0.090570   -0.083239    0.003865
O    -2.079665   -1.220004    0.144266   -0.161996   -0.139619    0.014385
O     0.557355    2.461499   -0.201050   -0.048414   -0.062527    0.006323
H     2.066688   -1.851890    0.092449    0.623131    0.407193   -0.065916
H     0.004295   -2.547047    0.189779    0.063376   -0.019967    0.001559
H    -1.834992    0.930082   -0.019254    0.989324    0.954006   -0.112082
H     2.828437    0.582690   -0.119186   -0.769696    0.587981   -0.012085
12
* Frequency(19)  986.4151
C     1.784002    0.317098   -0.068525   -0.493530   -0.001551    0.010216
C     1.354205   -0.996462    0.040047    0.184107   -0.071967    0.003873
N     0.115211   -1.539615    0.114009    0.112946   -0.021680   -0.001965
C    -0.943607   -0.810427    0.085261   -0.181301    0.099950   -0.002032
N    -0.884638    0.526543   -0.016345    0.405309    0.162452   -0.021775
C     0.460408    1.252958   -0.106364    0.090570   -0.083239    0.003865
O    -2.069456   -1.211206    0.143359   -0.161996   -0.139619    0.014385
O     0.560406    2.465439   -0.201449   -0.048414   -0.062527    0.006323
H     2.027420   -1.877550    0.096603    0.623131    0.407193   -0.065916
H     0.000301   -2.545789    0.189681    0.063376   -0.019967    0.001559
H    -1.897336    0.869963   -0.012191    0.989324    0.954006   -0.112082
H     2.876941    0.545637   -0.118424   -0.769696    0.587981   -0.012085
12
* Frequency(19)  986.4151
C     1.797961    0.317142   -0.068814   -0.493530   -0.001551    0.010216
C     1.348998   -0.994426    0.039937    0.184107   -0.071967    0.003873
N     0.112016   -1.539001    0.114064    0.112946   -0.021680   -0.001965
C    -0.938479   -0.813254    0.085318   -0.181301    0.099950   -0.002032
N    -0.896102    0.521948   -0.015729    0.405309    0.162452   -0.021775
C     0.457846    1.255313   -0.106473    0.090570   -0.083239    0.003865
O    -2.064874   -1.207257    0.142953   -0.161996   -0.139619    0.014385
O     0.561775    2.467208   -0.201627   -0.048414   -0.062527    0.006323
H     2.009795   -1.889067    0.098467    0.623131    0.407193   -0.065916
H    -0.001492   -2.545224    0.189637    0.063376   -0.019967    0.001559
H    -1.925318    0.842980   -0.009021    0.989324    0.954006   -0.112082
H     2.898711    0.529007   -0.118082   -0.769696    0.587981   -0.012085
12
* Frequency(19)  986.4151
C     1.793265    0.317128   -0.068716   -0.493530   -0.001551    0.010216
C     1.350749   -0.995111    0.039974    0.184107   -0.071967    0.003873
N     0.113091   -1.539208    0.114046    0.112946   -0.021680   -0.001965
C    -0.940204   -0.812303    0.085299   -0.181301    0.099950   -0.002032
N    -0.892246    0.523494   -0.015937    0.405309    0.162452   -0.021775
C     0.458708    1.254521   -0.106436    0.090570   -0.083239    0.003865
O    -2.066416   -1.208585    0.143089   -0.161996   -0.139619    0.014385
O     0.561314    2.466613   -0.201567   -0.048414   -0.062527    0.006323
H     2.015724   -1.885193    0.097840    0.623131    0.407193   -0.065916
H    -0.000889   -2.545414    0.189652    0.063376   -0.019967    0.001559
H    -1.915905    0.852057   -0.010087    0.989324    0.954006   -0.112082
H     2.891388    0.534601   -0.118197   -0.769696    0.587981   -0.012085
12
* Frequency(19)  986.4151
C     1.770424    0.317056   -0.068244   -0.493530   -0.001551    0.010216
C     1.359270   -0.998442    0.040153    0.184107   -0.071967    0.003873
N     0.118318   -1.540211    0.113955    0.112946   -0.021680   -0.001965
C    -0.948595   -0.807677    0.085205   -0.181301    0.099950   -0.002032
N    -0.873487    0.531012   -0.016944    0.405309    0.162452   -0.021775
C     0.462899    1.250668   -0.106257    0.090570   -0.083239    0.003865
O    -2.073913   -1.215047    0.143755   -0.161996   -0.139619    0.014385
O     0.559074    2.463719   -0.201275   -0.048414   -0.062527    0.006323
H     2.044564   -1.866347    0.094790    0.623131    0.407193   -0.065916
H     0.002045   -2.546338    0.189724    0.063376   -0.019967    0.001559
H    -1.870118    0.896210   -0.015274    0.989324    0.954006   -0.112082
H     2.855765    0.561814   -0.118756   -0.769696    0.587981   -0.012085
12
* Frequency(19)  986.4151
C     1.731912    0.316935   -0.067446   -0.493530   -0.001551    0.010216
C     1.373637   -1.004057    0.040455    0.184107   -0.071967    0.003873
N     0.127132   -1.541903    0.113801    0.112946   -0.021680   -0.001965
C    -0.962743   -0.799877    0.085046   -0.181301    0.099950   -0.002032
N    -0.841860    0.543689   -0.018644    0.405309    0.162452   -0.021775
C     0.469967    1.244173   -0.105956    0.090570   -0.083239    0.003865
O    -2.086554   -1.225942    0.144878   -0.161996   -0.139619    0.014385
O     0.555296    2.458840   -0.200781   -0.048414   -0.062527    0.006323
H     2.093189   -1.834572    0.089646    0.623131    0.407193   -0.065916
H     0.006990   -2.547897    0.189846    0.063376   -0.019967    0.001559
H    -1.792917    0.970654   -0.024021    0.989324    0.954006   -0.112082
H     2.795703    0.607696   -0.119700   -0.769696    0.587981   -0.012085
12
* Frequency(19)  986.4151
C     1.681903    0.316778   -0.066411   -0.493530   -0.001551    0.010216
C     1.392292   -1.011350    0.040848    0.184107   -0.071967    0.003873
N     0.138576   -1.544100    0.113602    0.112946   -0.021680   -0.001965
C    -0.981114   -0.789749    0.084840   -0.181301    0.099950   -0.002032
N    -0.800790    0.560150   -0.020850    0.405309    0.162452   -0.021775
C     0.479144    1.235738   -0.105564    0.090570   -0.083239    0.003865
O    -2.102969   -1.240090    0.146335   -0.161996   -0.139619    0.014385
O     0.550390    2.452504   -0.200141   -0.048414   -0.062527    0.006323
H     2.156331   -1.793312    0.082967    0.623131    0.407193   -0.065916
H     0.013412   -2.549920    0.190004    0.063376   -0.019967    0.001559
H    -1.692669    1.067324   -0.035378    0.989324    0.954006   -0.112082
H     2.717710    0.667276   -0.120924   -0.769696    0.587981   -0.012085
12
* Frequency(19)  986.4151
C     1.625816    0.316601   -0.065250   -0.493530   -0.001551    0.010216
C     1.413215   -1.019528    0.041288    0.184107   -0.071967    0.003873
N     0.151412   -1.546563    0.113379    0.112946   -0.021680   -0.001965
C    -1.001718   -0.778391    0.084609   -0.181301    0.099950   -0.002032
N    -0.754728    0.578612   -0.023325    0.405309    0.162452   -0.021775
C     0.489437    1.226278   -0.105125    0.090570   -0.083239    0.003865
O    -2.121379   -1.255957    0.147970   -0.161996   -0.139619    0.014385
O     0.544888    2.445398   -0.199422   -0.048414   -0.062527    0.006323
H     2.227146   -1.747036    0.075476    0.623131    0.407193   -0.065916
H     0.020614   -2.552189    0.190181    0.063376   -0.019967    0.001559
H    -1.580237    1.175741   -0.048115    0.989324    0.954006   -0.112082
H     2.630238    0.734097   -0.122298   -0.769696    0.587981   -0.012085
