12
* (null), Energy   -1000.0000000
C     1.625816    0.316601   -0.065250   -0.018316   -0.053893   -0.716999
C     1.413215   -1.019528    0.041288   -0.001566   -0.002810   -0.043709
N     0.151412   -1.546563    0.113379    0.019505    0.055994    0.758970
C    -1.001718   -0.778391    0.084609    0.002074    0.004982    0.076925
N    -0.754728    0.578612   -0.023325    0.003295    0.007832    0.111880
C     0.489437    1.226278   -0.105125   -0.001888   -0.004833   -0.066959
O    -2.121379   -1.255957    0.147970   -0.012603   -0.035746   -0.489650
O     0.544888    2.445398   -0.199422    0.008088    0.024780    0.321618
H     2.227146   -1.747036    0.075476   -0.002900   -0.007456   -0.109986
H     0.020614   -2.552189    0.190181    0.024534    0.064838    0.883820
H    -1.580237    1.175741   -0.048115    0.001322    0.002558    0.049628
H     2.630238    0.734097   -0.122298   -0.033442   -0.098929   -1.312006
12
* Frequency(7)  180.3111
C     1.623734    0.310477   -0.146733   -0.018316   -0.053893   -0.716999
C     1.413037   -1.019848    0.036321   -0.001566   -0.002810   -0.043709
N     0.153629   -1.540200    0.199632    0.019505    0.055994    0.758970
C    -1.001482   -0.777825    0.093351    0.002074    0.004982    0.076925
N    -0.754354    0.579502   -0.010610    0.003295    0.007832    0.111880
C     0.489223    1.225729   -0.112734   -0.001888   -0.004833   -0.066959
O    -2.122812   -1.260019    0.092324   -0.012603   -0.035746   -0.489650
O     0.545807    2.448214   -0.162872    0.008088    0.024780    0.321618
H     2.226817   -1.747884    0.062976   -0.002900   -0.007456   -0.109986
H     0.023403   -2.544821    0.290623    0.024534    0.064838    0.883820
H    -1.580087    1.176032   -0.042475    0.001322    0.002558    0.049628
H     2.626437    0.722854   -0.271400   -0.033442   -0.098929   -1.312006
12
* Frequency(7)  180.3111
C     1.621878    0.305016   -0.219387   -0.018316   -0.053893   -0.716999
C     1.412878   -1.020132    0.031892   -0.001566   -0.002810   -0.043709
N     0.155605   -1.534526    0.276538    0.019505    0.055994    0.758970
C    -1.001272   -0.777320    0.101146    0.002074    0.004982    0.076925
N    -0.754020    0.580296    0.000727    0.003295    0.007832    0.111880
C     0.489031    1.225239   -0.119519   -0.001888   -0.004833   -0.066959
O    -2.124089   -1.263641    0.042708   -0.012603   -0.035746   -0.489650
O     0.546627    2.450725   -0.130282    0.008088    0.024780    0.321618
H     2.226523   -1.748639    0.051831   -0.002900   -0.007456   -0.109986
H     0.025889   -2.538251    0.380180    0.024534    0.064838    0.883820
H    -1.579953    1.176291   -0.037447    0.001322    0.002558    0.049628
H     2.623049    0.712830   -0.404345   -0.033442   -0.098929   -1.312006
12
* Frequency(7)  180.3111
C     1.620449    0.300810   -0.275337   -0.018316   -0.053893   -0.716999
C     1.412756   -1.020352    0.028481   -0.001566   -0.002810   -0.043709
N     0.157127   -1.530157    0.335763    0.019505    0.055994    0.758970
C    -1.001110   -0.776931    0.107149    0.002074    0.004982    0.076925
N    -0.753763    0.580907    0.009457    0.003295    0.007832    0.111880
C     0.488884    1.224862   -0.124745   -0.001888   -0.004833   -0.066959
O    -2.125072   -1.266431    0.004499   -0.012603   -0.035746   -0.489650
O     0.547258    2.452659   -0.105185    0.008088    0.024780    0.321618
H     2.226297   -1.749221    0.043249   -0.002900   -0.007456   -0.109986
H     0.027803   -2.533191    0.449148    0.024534    0.064838    0.883820
H    -1.579850    1.176491   -0.033574    0.001322    0.002558    0.049628
H     2.620439    0.705110   -0.506726   -0.033442   -0.098929   -1.312006
12
* Frequency(7)  180.3111
C     1.619601    0.298316   -0.308521   -0.018316   -0.053893   -0.716999
C     1.412684   -1.020482    0.026458   -0.001566   -0.002810   -0.043709
N     0.158030   -1.527565    0.370890    0.019505    0.055994    0.758970
C    -1.001014   -0.776700    0.110709    0.002074    0.004982    0.076925
N    -0.753610    0.581270    0.014635    0.003295    0.007832    0.111880
C     0.488797    1.224639   -0.127844   -0.001888   -0.004833   -0.066959
O    -2.125655   -1.268085   -0.018163   -0.012603   -0.035746   -0.489650
O     0.547632    2.453806   -0.090300    0.008088    0.024780    0.321618
H     2.226162   -1.749566    0.038158   -0.002900   -0.007456   -0.109986
H     0.028939   -2.530190    0.490052    0.024534    0.064838    0.883820
H    -1.579789    1.176609   -0.031277    0.001322    0.002558    0.049628
H     2.618891    0.700532   -0.567448   -0.033442   -0.098929   -1.312006
12
* Frequency(7)  180.3111
C     1.619427    0.297803   -0.315343   -0.018316   -0.053893   -0.716999
C     1.412669   -1.020508    0.026042   -0.001566   -0.002810   -0.043709
N     0.158216   -1.527032    0.378111    0.019505    0.055994    0.758970
C    -1.000994   -0.776653    0.111441    0.002074    0.004982    0.076925
N    -0.753579    0.581344    0.015700    0.003295    0.007832    0.111880
C     0.488779    1.224593   -0.128481   -0.001888   -0.004833   -0.066959
O    -2.125775   -1.268425   -0.022822   -0.012603   -0.035746   -0.489650
O     0.547709    2.454041   -0.087240    0.008088    0.024780    0.321618
H     2.226135   -1.749637    0.037112   -0.002900   -0.007456   -0.109986
H     0.029172   -2.529573    0.498462    0.024534    0.064838    0.883820
H    -1.579776    1.176633   -0.030805    0.001322    0.002558    0.049628
H     2.618573    0.699590   -0.579931   -0.033442   -0.098929   -1.312006
12
* Frequency(7)  180.3111
C     1.619945    0.299328   -0.295063   -0.018316   -0.053893   -0.716999
C     1.412713   -1.020429    0.027278   -0.001566   -0.002810   -0.043709
N     0.157664   -1.528616    0.356645    0.019505    0.055994    0.758970
C    -1.001053   -0.776794    0.109265    0.002074    0.004982    0.076925
N    -0.753672    0.581123    0.012535    0.003295    0.007832    0.111880
C     0.488832    1.224729   -0.126587   -0.001888   -0.004833   -0.066959
O    -2.125419   -1.267414   -0.008973   -0.012603   -0.035746   -0.489650
O     0.547480    2.453341   -0.096337    0.008088    0.024780    0.321618
H     2.226217   -1.749426    0.040223   -0.002900   -0.007456   -0.109986
H     0.028478   -2.531407    0.473464    0.024534    0.064838    0.883820
H    -1.579814    1.176561   -0.032209    0.001322    0.002558    0.049628
H     2.619519    0.702388   -0.542823   -0.033442   -0.098929   -1.312006
12
* Frequency(7)  180.3111
C     1.621099    0.302724   -0.249880   -0.018316   -0.053893   -0.716999
C     1.412812   -1.020252    0.030033   -0.001566   -0.002810   -0.043709
N     0.156435   -1.532145    0.308816    0.019505    0.055994    0.758970
C    -1.001184   -0.777108    0.104418    0.002074    0.004982    0.076925
N    -0.753880    0.580629    0.005485    0.003295    0.007832    0.111880
C     0.488951    1.225034   -0.122367   -0.001888   -0.004833   -0.066959
O    -2.124625   -1.265161    0.021884   -0.012603   -0.035746   -0.489650
O     0.546971    2.451779   -0.116604    0.008088    0.024780    0.321618
H     2.226400   -1.748956    0.047154   -0.002900   -0.007456   -0.109986
H     0.026932   -2.535493    0.417768    0.024534    0.064838    0.883820
H    -1.579897    1.176400   -0.035336    0.001322    0.002558    0.049628
H     2.621626    0.708623   -0.460144   -0.033442   -0.098929   -1.312006
12
* Frequency(7)  180.3111
C     1.622764    0.307624   -0.184689   -0.018316   -0.053893   -0.716999
C     1.412954   -1.019996    0.034007   -0.001566   -0.002810   -0.043709
N     0.154661   -1.537236    0.239809    0.019505    0.055994    0.758970
C    -1.001372   -0.777561    0.097424    0.002074    0.004982    0.076925
N    -0.754179    0.579917   -0.004687    0.003295    0.007832    0.111880
C     0.489123    1.225473   -0.116279   -0.001888   -0.004833   -0.066959
O    -2.123479   -1.261911    0.066403   -0.012603   -0.035746   -0.489650
O     0.546235    2.449526   -0.145846    0.008088    0.024780    0.321618
H     2.226663   -1.748278    0.057154   -0.002900   -0.007456   -0.109986
H     0.024701   -2.541388    0.337409    0.024534    0.064838    0.883820
H    -1.580017    1.176167   -0.039848    0.001322    0.002558    0.049628
H     2.624667    0.717617   -0.340854   -0.033442   -0.098929   -1.312006
12
* Frequency(7)  180.3111
C     1.624760    0.313497   -0.106555   -0.018316   -0.053893   -0.716999
C     1.413125   -1.019690    0.038770   -0.001566   -0.002810   -0.043709
N     0.152536   -1.543338    0.157102    0.019505    0.055994    0.758970
C    -1.001598   -0.778104    0.089041    0.002074    0.004982    0.076925
N    -0.754539    0.579063   -0.016879    0.003295    0.007832    0.111880
C     0.489328    1.226000   -0.108982   -0.001888   -0.004833   -0.066959
O    -2.122105   -1.258016    0.119762   -0.012603   -0.035746   -0.489650
O     0.545354    2.446826   -0.180894    0.008088    0.024780    0.321618
H     2.226979   -1.747466    0.069139   -0.002900   -0.007456   -0.109986
H     0.022028   -2.548454    0.241096    0.024534    0.064838    0.883820
H    -1.580161    1.175889   -0.045256    0.001322    0.002558    0.049628
H     2.628311    0.728398   -0.197880   -0.033442   -0.098929   -1.312006
12
* Frequency(7)  180.3111
C     1.626871    0.319706   -0.023945   -0.018316   -0.053893   -0.716999
C     1.413305   -1.019367    0.043806   -0.001566   -0.002810   -0.043709
N     0.150288   -1.549789    0.069656    0.019505    0.055994    0.758970
C    -1.001837   -0.778678    0.080178    0.002074    0.004982    0.076925
N    -0.754918    0.578161   -0.029770    0.003295    0.007832    0.111880
C     0.489546    1.226557   -0.101267   -0.001888   -0.004833   -0.066959
O    -2.120653   -1.253897    0.176178   -0.012603   -0.035746   -0.489650
O     0.544422    2.443970   -0.217950    0.008088    0.024780    0.321618
H     2.227313   -1.746607    0.081812   -0.002900   -0.007456   -0.109986
H     0.019201   -2.555924    0.139266    0.024534    0.064838    0.883820
H    -1.580314    1.175594   -0.050974    0.001322    0.002558    0.049628
H     2.632164    0.739796   -0.046715   -0.033442   -0.098929   -1.312006
12
* Frequency(7)  180.3111
C     1.628867    0.325579    0.054189   -0.018316   -0.053893   -0.716999
C     1.413476   -1.019060    0.048569   -0.001566   -0.002810   -0.043709
N     0.148163   -1.555891   -0.013051    0.019505    0.055994    0.758970
C    -1.002063   -0.779221    0.071795    0.002074    0.004982    0.076925
N    -0.755277    0.577307   -0.041962    0.003295    0.007832    0.111880
C     0.489752    1.227083   -0.093971   -0.001888   -0.004833   -0.066959
O    -2.119280   -1.250002    0.229537   -0.012603   -0.035746   -0.489650
O     0.543541    2.441270   -0.252998    0.008088    0.024780    0.321618
H     2.227629   -1.745794    0.093797   -0.002900   -0.007456   -0.109986
H     0.016527   -2.562990    0.042953    0.024534    0.064838    0.883820
H    -1.580458    1.175315   -0.056382    0.001322    0.002558    0.049628
H     2.635808    0.750577    0.096258   -0.033442   -0.098929   -1.312006
12
* Frequency(7)  180.3111
C     1.630532    0.330479    0.119380   -0.018316   -0.053893   -0.716999
C     1.413618   -1.018805    0.052543   -0.001566   -0.002810   -0.043709
N     0.146389   -1.560982   -0.082058    0.019505    0.055994    0.758970
C    -1.002252   -0.779674    0.064801    0.002074    0.004982    0.076925
N    -0.755577    0.576595   -0.052134    0.003295    0.007832    0.111880
C     0.489924    1.227523   -0.087883   -0.001888   -0.004833   -0.066959
O    -2.118134   -1.246752    0.274057   -0.012603   -0.035746   -0.489650
O     0.542805    2.439017   -0.282240    0.008088    0.024780    0.321618
H     2.227893   -1.745116    0.103797   -0.002900   -0.007456   -0.109986
H     0.014297   -2.568885   -0.037406    0.024534    0.064838    0.883820
H    -1.580578    1.175083   -0.060895    0.001322    0.002558    0.049628
H     2.638849    0.759572    0.215548   -0.033442   -0.098929   -1.312006
12
* Frequency(7)  180.3111
C     1.631686    0.333875    0.164563   -0.018316   -0.053893   -0.716999
C     1.413717   -1.018628    0.055298   -0.001566   -0.002810   -0.043709
N     0.145160   -1.564511   -0.129887    0.019505    0.055994    0.758970
C    -1.002382   -0.779988    0.059953    0.002074    0.004982    0.076925
N    -0.755785    0.576102   -0.059184    0.003295    0.007832    0.111880
C     0.490043    1.227827   -0.083663   -0.001888   -0.004833   -0.066959
O    -2.117340   -1.244499    0.304913   -0.012603   -0.035746   -0.489650
O     0.542295    2.437455   -0.302507    0.008088    0.024780    0.321618
H     2.228076   -1.744646    0.110728   -0.002900   -0.007456   -0.109986
H     0.012751   -2.572971   -0.093102    0.024534    0.064838    0.883820
H    -1.580661    1.174922   -0.064022    0.001322    0.002558    0.049628
H     2.640956    0.765806    0.298228   -0.033442   -0.098929   -1.312006
12
* Frequency(7)  180.3111
C     1.632204    0.335400    0.184843   -0.018316   -0.053893   -0.716999
C     1.413761   -1.018548    0.056534   -0.001566   -0.002810   -0.043709
N     0.144609   -1.566094   -0.151353    0.019505    0.055994    0.758970
C    -1.002441   -0.780129    0.057778    0.002074    0.004982    0.076925
N    -0.755878    0.575880   -0.062349    0.003295    0.007832    0.111880
C     0.490096    1.227964   -0.081769   -0.001888   -0.004833   -0.066959
O    -2.116983   -1.243488    0.318763   -0.012603   -0.035746   -0.489650
O     0.542067    2.436755   -0.311604    0.008088    0.024780    0.321618
H     2.228158   -1.744436    0.113839   -0.002900   -0.007456   -0.109986
H     0.012057   -2.574805   -0.118100    0.024534    0.064838    0.883820
H    -1.580699    1.174849   -0.065426    0.001322    0.002558    0.049628
H     2.641902    0.768604    0.335336   -0.033442   -0.098929   -1.312006
12
* Frequency(7)  180.3111
C     1.632030    0.334887    0.178021   -0.018316   -0.053893   -0.716999
C     1.413746   -1.018575    0.056118   -0.001566   -0.002810   -0.043709
N     0.144794   -1.565562   -0.144132    0.019505    0.055994    0.758970
C    -1.002421   -0.780081    0.058510    0.002074    0.004982    0.076925
N    -0.755846    0.575955   -0.061284    0.003295    0.007832    0.111880
C     0.490078    1.227918   -0.082406   -0.001888   -0.004833   -0.066959
O    -2.117103   -1.243828    0.314104   -0.012603   -0.035746   -0.489650
O     0.542144    2.436990   -0.308544    0.008088    0.024780    0.321618
H     2.228130   -1.744506    0.112793   -0.002900   -0.007456   -0.109986
H     0.012290   -2.574188   -0.109691    0.024534    0.064838    0.883820
H    -1.580686    1.174874   -0.064954    0.001322    0.002558    0.049628
H     2.641584    0.767663    0.322853   -0.033442   -0.098929   -1.312006
12
* Frequency(7)  180.3111
C     1.631182    0.332393    0.144837   -0.018316   -0.053893   -0.716999
C     1.413674   -1.018705    0.054095   -0.001566   -0.002810   -0.043709
N     0.145697   -1.562970   -0.109005    0.019505    0.055994    0.758970
C    -1.002325   -0.779851    0.062070    0.002074    0.004982    0.076925
N    -0.755694    0.576317   -0.056106    0.003295    0.007832    0.111880
C     0.489991    1.227695   -0.085505   -0.001888   -0.004833   -0.066959
O    -2.117687   -1.245483    0.291442   -0.012603   -0.035746   -0.489650
O     0.542518    2.438137   -0.293659    0.008088    0.024780    0.321618
H     2.227996   -1.744852    0.107702   -0.002900   -0.007456   -0.109986
H     0.013426   -2.571187   -0.068786    0.024534    0.064838    0.883820
H    -1.580625    1.174992   -0.062657    0.001322    0.002558    0.049628
H     2.640036    0.763084    0.262131   -0.033442   -0.098929   -1.312006
12
* Frequency(7)  180.3111
C     1.629753    0.328187    0.088886   -0.018316   -0.053893   -0.716999
C     1.413552   -1.018924    0.050684   -0.001566   -0.002810   -0.043709
N     0.147219   -1.558601   -0.049780    0.019505    0.055994    0.758970
C    -1.002164   -0.779462    0.068072    0.002074    0.004982    0.076925
N    -0.755437    0.576928   -0.047376    0.003295    0.007832    0.111880
C     0.489843    1.227317   -0.090730   -0.001888   -0.004833   -0.066959
O    -2.118670   -1.248272    0.253233   -0.012603   -0.035746   -0.489650
O     0.543149    2.440071   -0.268562    0.008088    0.024780    0.321618
H     2.227770   -1.745433    0.099120   -0.002900   -0.007456   -0.109986
H     0.015340   -2.566128    0.000182    0.024534    0.064838    0.883820
H    -1.580522    1.175192   -0.058784    0.001322    0.002558    0.049628
H     2.637427    0.755364    0.159750   -0.033442   -0.098929   -1.312006
12
* Frequency(7)  180.3111
C     1.627897    0.322726    0.016233   -0.018316   -0.053893   -0.716999
C     1.413393   -1.019209    0.046255   -0.001566   -0.002810   -0.043709
N     0.149195   -1.552927    0.027126    0.019505    0.055994    0.758970
C    -1.001953   -0.778957    0.075867    0.002074    0.004982    0.076925
N    -0.755103    0.577722   -0.036039    0.003295    0.007832    0.111880
C     0.489652    1.226828   -0.097515   -0.001888   -0.004833   -0.066959
O    -2.119947   -1.251894    0.203616   -0.012603   -0.035746   -0.489650
O     0.543969    2.442582   -0.235972    0.008088    0.024780    0.321618
H     2.227476   -1.746189    0.087975   -0.002900   -0.007456   -0.109986
H     0.017826   -2.559558    0.089739    0.024534    0.064838    0.883820
H    -1.580388    1.175451   -0.053755    0.001322    0.002558    0.049628
H     2.634038    0.745340    0.026805   -0.033442   -0.098929   -1.312006
12
* Frequency(7)  180.3111
C     1.625816    0.316601   -0.065250   -0.018316   -0.053893   -0.716999
C     1.413215   -1.019528    0.041288   -0.001566   -0.002810   -0.043709
N     0.151412   -1.546563    0.113379    0.019505    0.055994    0.758970
C    -1.001718   -0.778391    0.084609    0.002074    0.004982    0.076925
N    -0.754728    0.578612   -0.023325    0.003295    0.007832    0.111880
C     0.489437    1.226278   -0.105125   -0.001888   -0.004833   -0.066959
O    -2.121379   -1.255957    0.147970   -0.012603   -0.035746   -0.489650
O     0.544888    2.445398   -0.199422    0.008088    0.024780    0.321618
H     2.227146   -1.747036    0.075476   -0.002900   -0.007456   -0.109986
H     0.020614   -2.552189    0.190181    0.024534    0.064838    0.883820
H    -1.580237    1.175741   -0.048115    0.001322    0.002558    0.049628
H     2.630238    0.734097   -0.122298   -0.033442   -0.098929   -1.312006
