12
* (null), Energy   -1000.0000000
C     1.321514    0.518496   -0.072777    0.005506    0.015279    0.202165
C     1.109175   -0.817930    0.032797   -0.000615   -0.002086   -0.030550
N    -0.152373   -1.344381    0.103578   -0.002424   -0.006881   -0.100339
C    -1.303319   -0.575774    0.076278    0.003139    0.009627    0.135099
N    -1.058010    0.780216   -0.032013    0.028807    0.084757    1.128645
C     0.185580    1.426809   -0.112240    0.004033    0.010949    0.148484
O    -2.424404   -1.053547    0.141169   -0.014356   -0.040003   -0.527187
O     0.240353    2.647240   -0.204710   -0.017836   -0.053088   -0.711583
H     1.922616   -1.545424    0.067591   -0.007384   -0.022003   -0.289926
H    -0.283402   -2.349496    0.186263   -0.019062   -0.063943   -0.821230
H    -1.883441    1.377385   -0.056304    0.025889    0.077023    1.032163
H     2.325711    0.936406   -0.129663    0.001136    0.001914    0.027603
12
* Frequency(6)  163.9604
C     1.322140    0.520233   -0.049802    0.005506    0.015279    0.202165
C     1.109105   -0.818167    0.029325   -0.000615   -0.002086   -0.030550
N    -0.152649   -1.345163    0.092175   -0.002424   -0.006881   -0.100339
C    -1.302962   -0.574680    0.091632    0.003139    0.009627    0.135099
N    -1.054736    0.789849    0.096252    0.028807    0.084757    1.128645
C     0.186038    1.428053   -0.095365    0.004033    0.010949    0.148484
O    -2.426036   -1.058093    0.081257   -0.014356   -0.040003   -0.527187
O     0.238327    2.641207   -0.285578   -0.017836   -0.053088   -0.711583
H     1.921777   -1.547925    0.034642   -0.007384   -0.022003   -0.289926
H    -0.285568   -2.356763    0.092935   -0.019062   -0.063943   -0.821230
H    -1.880499    1.386138    0.060996    0.025889    0.077023    1.032163
H     2.325840    0.936624   -0.126526    0.001136    0.001914    0.027603
12
* Frequency(6)  163.9604
C     1.322698    0.521781   -0.029316    0.005506    0.015279    0.202165
C     1.109043   -0.818378    0.026230   -0.000615   -0.002086   -0.030550
N    -0.152894   -1.345860    0.082008   -0.002424   -0.006881   -0.100339
C    -1.302644   -0.573704    0.105321    0.003139    0.009627    0.135099
N    -1.051817    0.798437    0.210617    0.028807    0.084757    1.128645
C     0.186447    1.429162   -0.080319    0.004033    0.010949    0.148484
O    -2.427491   -1.062146    0.027837   -0.014356   -0.040003   -0.527187
O     0.236519    2.635827   -0.357682   -0.017836   -0.053088   -0.711583
H     1.921029   -1.550154    0.005264   -0.007384   -0.022003   -0.289926
H    -0.287499   -2.363243    0.009720   -0.019062   -0.063943   -0.821230
H    -1.877875    1.393943    0.165584    0.025889    0.077023    1.032163
H     2.325955    0.936818   -0.123729    0.001136    0.001914    0.027603
12
* Frequency(6)  163.9604
C     1.323127    0.522973   -0.013541    0.005506    0.015279    0.202165
C     1.108995   -0.818541    0.023846   -0.000615   -0.002086   -0.030550
N    -0.153084   -1.346397    0.074178   -0.002424   -0.006881   -0.100339
C    -1.302399   -0.572953    0.115863    0.003139    0.009627    0.135099
N    -1.049569    0.805051    0.298690    0.028807    0.084757    1.128645
C     0.186761    1.430017   -0.068733    0.004033    0.010949    0.148484
O    -2.428611   -1.065268   -0.013301   -0.014356   -0.040003   -0.527187
O     0.235127    2.631685   -0.413210   -0.017836   -0.053088   -0.711583
H     1.920453   -1.551871   -0.017360   -0.007384   -0.022003   -0.289926
H    -0.288987   -2.368232   -0.054364   -0.019062   -0.063943   -0.821230
H    -1.875855    1.399954    0.246128    0.025889    0.077023    1.032163
H     2.326044    0.936967   -0.121575    0.001136    0.001914    0.027603
12
* Frequency(6)  163.9604
C     1.323382    0.523680   -0.004184    0.005506    0.015279    0.202165
C     1.108967   -0.818638    0.022432   -0.000615   -0.002086   -0.030550
N    -0.153196   -1.346716    0.069534   -0.002424   -0.006881   -0.100339
C    -1.302254   -0.572508    0.122116    0.003139    0.009627    0.135099
N    -1.048236    0.808974    0.350926    0.028807    0.084757    1.128645
C     0.186948    1.430524   -0.061860    0.004033    0.010949    0.148484
O    -2.429275   -1.067119   -0.037701   -0.014356   -0.040003   -0.527187
O     0.234302    2.629228   -0.446143   -0.017836   -0.053088   -0.711583
H     1.920111   -1.552889   -0.030778   -0.007384   -0.022003   -0.289926
H    -0.289869   -2.371192   -0.092372   -0.019062   -0.063943   -0.821230
H    -1.874657    1.403518    0.293898    0.025889    0.077023    1.032163
H     2.326096    0.937056   -0.120298    0.001136    0.001914    0.027603
12
* Frequency(6)  163.9604
C     1.323434    0.523826   -0.002261    0.005506    0.015279    0.202165
C     1.108961   -0.818658    0.022141   -0.000615   -0.002086   -0.030550
N    -0.153219   -1.346781    0.068580   -0.002424   -0.006881   -0.100339
C    -1.302224   -0.572416    0.123401    0.003139    0.009627    0.135099
N    -1.047962    0.809780    0.361664    0.028807    0.084757    1.128645
C     0.186987    1.430628   -0.060448    0.004033    0.010949    0.148484
O    -2.429412   -1.067500   -0.042716   -0.014356   -0.040003   -0.527187
O     0.234132    2.628723   -0.452914   -0.017836   -0.053088   -0.711583
H     1.920041   -1.553099   -0.033537   -0.007384   -0.022003   -0.289926
H    -0.290050   -2.371800   -0.100185   -0.019062   -0.063943   -0.821230
H    -1.874411    1.404251    0.303719    0.025889    0.077023    1.032163
H     2.326107    0.937074   -0.120035    0.001136    0.001914    0.027603
12
* Frequency(6)  163.9604
C     1.323279    0.523394   -0.007979    0.005506    0.015279    0.202165
C     1.108978   -0.818599    0.023005   -0.000615   -0.002086   -0.030550
N    -0.153150   -1.346587    0.071418   -0.002424   -0.006881   -0.100339
C    -1.302313   -0.572688    0.119580    0.003139    0.009627    0.135099
N    -1.048777    0.807383    0.329742    0.028807    0.084757    1.128645
C     0.186872    1.430318   -0.064647    0.004033    0.010949    0.148484
O    -2.429006   -1.066368   -0.027806   -0.014356   -0.040003   -0.527187
O     0.234637    2.630224   -0.432787   -0.017836   -0.053088   -0.711583
H     1.920249   -1.552476   -0.025336   -0.007384   -0.022003   -0.289926
H    -0.289511   -2.369991   -0.076958   -0.019062   -0.063943   -0.821230
H    -1.875143    1.402073    0.274525    0.025889    0.077023    1.032163
H     2.326075    0.937020   -0.120816    0.001136    0.001914    0.027603
12
* Frequency(6)  163.9604
C     1.322932    0.522431   -0.020719    0.005506    0.015279    0.202165
C     1.109017   -0.818467    0.024931   -0.000615   -0.002086   -0.030550
N    -0.152998   -1.346153    0.077741   -0.002424   -0.006881   -0.100339
C    -1.302511   -0.573295    0.111067    0.003139    0.009627    0.135099
N    -1.050592    0.802042    0.258617    0.028807    0.084757    1.128645
C     0.186618    1.429628   -0.074004    0.004033    0.010949    0.148484
O    -2.428101   -1.063848    0.005416   -0.014356   -0.040003   -0.527187
O     0.235761    2.633570   -0.387945   -0.017836   -0.053088   -0.711583
H     1.920715   -1.551090   -0.007066   -0.007384   -0.022003   -0.289926
H    -0.288310   -2.365962   -0.025206   -0.019062   -0.063943   -0.821230
H    -1.876774    1.397219    0.209481    0.025889    0.077023    1.032163
H     2.326003    0.936899   -0.122555    0.001136    0.001914    0.027603
12
* Frequency(6)  163.9604
C     1.322431    0.521041   -0.039100    0.005506    0.015279    0.202165
C     1.109073   -0.818277    0.027708   -0.000615   -0.002086   -0.030550
N    -0.152777   -1.345527    0.086864   -0.002424   -0.006881   -0.100339
C    -1.302796   -0.574170    0.098783    0.003139    0.009627    0.135099
N    -1.053211    0.794335    0.155999    0.028807    0.084757    1.128645
C     0.186252    1.428632   -0.087505    0.004033    0.010949    0.148484
O    -2.426796   -1.060210    0.053349   -0.014356   -0.040003   -0.527187
O     0.237382    2.638396   -0.323247   -0.017836   -0.053088   -0.711583
H     1.921386   -1.549089    0.019295   -0.007384   -0.022003   -0.289926
H    -0.286577   -2.360148    0.049462   -0.019062   -0.063943   -0.821230
H    -1.879128    1.390216    0.115635    0.025889    0.077023    1.032163
H     2.325900    0.936725   -0.125065    0.001136    0.001914    0.027603
12
* Frequency(6)  163.9604
C     1.321831    0.519376   -0.061130    0.005506    0.015279    0.202165
C     1.109140   -0.818050    0.031037   -0.000615   -0.002086   -0.030550
N    -0.152513   -1.344778    0.097798   -0.002424   -0.006881   -0.100339
C    -1.303138   -0.575219    0.084061    0.003139    0.009627    0.135099
N    -1.056351    0.785099    0.033006    0.028807    0.084757    1.128645
C     0.185812    1.427439   -0.103686    0.004033    0.010949    0.148484
O    -2.425231   -1.055851    0.110799   -0.014356   -0.040003   -0.527187
O     0.239326    2.644182   -0.245703   -0.017836   -0.053088   -0.711583
H     1.922191   -1.546692    0.050889   -0.007384   -0.022003   -0.289926
H    -0.284500   -2.353180    0.138954   -0.019062   -0.063943   -0.821230
H    -1.881949    1.381822    0.003157    0.025889    0.077023    1.032163
H     2.325776    0.936516   -0.128073    0.001136    0.001914    0.027603
12
* Frequency(6)  163.9604
C     1.321197    0.517616   -0.084423    0.005506    0.015279    0.202165
C     1.109211   -0.817810    0.034557   -0.000615   -0.002086   -0.030550
N    -0.152234   -1.343985    0.109359   -0.002424   -0.006881   -0.100339
C    -1.303500   -0.576329    0.068495    0.003139    0.009627    0.135099
N    -1.059670    0.775334   -0.097032    0.028807    0.084757    1.128645
C     0.185348    1.426178   -0.120793    0.004033    0.010949    0.148484
O    -2.423577   -1.051242    0.171539   -0.014356   -0.040003   -0.527187
O     0.241381    2.650298   -0.163717   -0.017836   -0.053088   -0.711583
H     1.923042   -1.544156    0.084293   -0.007384   -0.022003   -0.289926
H    -0.282303   -2.345813    0.233573   -0.019062   -0.063943   -0.821230
H    -1.884932    1.372948   -0.115765    0.025889    0.077023    1.032163
H     2.325645    0.936296   -0.131253    0.001136    0.001914    0.027603
12
* Frequency(6)  163.9604
C     1.320597    0.515951   -0.106454    0.005506    0.015279    0.202165
C     1.109278   -0.817583    0.037886   -0.000615   -0.002086   -0.030550
N    -0.151970   -1.343235    0.120293   -0.002424   -0.006881   -0.100339
C    -1.303842   -0.577378    0.053773    0.003139    0.009627    0.135099
N    -1.062809    0.766097   -0.220024    0.028807    0.084757    1.128645
C     0.184908    1.424985   -0.136974    0.004033    0.010949    0.148484
O    -2.422013   -1.046883    0.228988   -0.014356   -0.040003   -0.527187
O     0.243325    2.656083   -0.086174   -0.017836   -0.053088   -0.711583
H     1.923846   -1.541759    0.115887   -0.007384   -0.022003   -0.289926
H    -0.280226   -2.338845    0.323065   -0.019062   -0.063943   -0.821230
H    -1.887753    1.364555   -0.228244    0.025889    0.077023    1.032163
H     2.325522    0.936087   -0.134261    0.001136    0.001914    0.027603
12
* Frequency(6)  163.9604
C     1.320096    0.514562   -0.124835    0.005506    0.015279    0.202165
C     1.109334   -0.817393    0.040664   -0.000615   -0.002086   -0.030550
N    -0.151749   -1.342609    0.129416   -0.002424   -0.006881   -0.100339
C    -1.304128   -0.578253    0.041490    0.003139    0.009627    0.135099
N    -1.065428    0.758391   -0.322643    0.028807    0.084757    1.128645
C     0.184541    1.423989   -0.150475    0.004033    0.010949    0.148484
O    -2.420708   -1.043246    0.276921   -0.014356   -0.040003   -0.527187
O     0.244946    2.660910   -0.021475   -0.017836   -0.053088   -0.711583
H     1.924518   -1.539758    0.142248   -0.007384   -0.022003   -0.289926
H    -0.278493   -2.333031    0.397733   -0.019062   -0.063943   -0.821230
H    -1.890107    1.357551   -0.322090    0.025889    0.077023    1.032163
H     2.325418    0.935913   -0.136771    0.001136    0.001914    0.027603
12
* Frequency(6)  163.9604
C     1.319749    0.513599   -0.137575    0.005506    0.015279    0.202165
C     1.109372   -0.817262    0.042589   -0.000615   -0.002086   -0.030550
N    -0.151597   -1.342176    0.135739   -0.002424   -0.006881   -0.100339
C    -1.304325   -0.578860    0.032976    0.003139    0.009627    0.135099
N    -1.067243    0.753050   -0.393767    0.028807    0.084757    1.128645
C     0.184287    1.423299   -0.159832    0.004033    0.010949    0.148484
O    -2.419803   -1.040725    0.310143   -0.014356   -0.040003   -0.527187
O     0.246070    2.664256    0.023367   -0.017836   -0.053088   -0.711583
H     1.924983   -1.538371    0.160518   -0.007384   -0.022003   -0.289926
H    -0.277292   -2.329002    0.449484   -0.019062   -0.063943   -0.821230
H    -1.891739    1.352698   -0.387134    0.025889    0.077023    1.032163
H     2.325347    0.935793   -0.138511    0.001136    0.001914    0.027603
12
* Frequency(6)  163.9604
C     1.319593    0.513167   -0.143293    0.005506    0.015279    0.202165
C     1.109390   -0.817203    0.043453   -0.000615   -0.002086   -0.030550
N    -0.151528   -1.341981    0.138577   -0.002424   -0.006881   -0.100339
C    -1.304414   -0.579132    0.029155    0.003139    0.009627    0.135099
N    -1.068058    0.750653   -0.425689    0.028807    0.084757    1.128645
C     0.184173    1.422989   -0.164031    0.004033    0.010949    0.148484
O    -2.419397   -1.039593    0.325054   -0.014356   -0.040003   -0.527187
O     0.246575    2.665757    0.043493   -0.017836   -0.053088   -0.711583
H     1.925192   -1.537749    0.168718   -0.007384   -0.022003   -0.289926
H    -0.276753   -2.327193    0.472712   -0.019062   -0.063943   -0.821230
H    -1.892471    1.350519   -0.416327    0.025889    0.077023    1.032163
H     2.325314    0.935738   -0.139291    0.001136    0.001914    0.027603
12
* Frequency(6)  163.9604
C     1.319646    0.513312   -0.141369    0.005506    0.015279    0.202165
C     1.109384   -0.817222    0.043162   -0.000615   -0.002086   -0.030550
N    -0.151551   -1.342047    0.137622   -0.002424   -0.006881   -0.100339
C    -1.304384   -0.579040    0.030440    0.003139    0.009627    0.135099
N    -1.067784    0.751459   -0.414951    0.028807    0.084757    1.128645
C     0.184212    1.423094   -0.162619    0.004033    0.010949    0.148484
O    -2.419534   -1.039974    0.320038   -0.014356   -0.040003   -0.527187
O     0.246405    2.665252    0.036723   -0.017836   -0.053088   -0.711583
H     1.925121   -1.537958    0.165960   -0.007384   -0.022003   -0.289926
H    -0.276934   -2.327801    0.464898   -0.019062   -0.063943   -0.821230
H    -1.892225    1.351252   -0.406507    0.025889    0.077023    1.032163
H     2.325325    0.935757   -0.139029    0.001136    0.001914    0.027603
12
* Frequency(6)  163.9604
C     1.319900    0.514019   -0.132013    0.005506    0.015279    0.202165
C     1.109355   -0.817319    0.041748   -0.000615   -0.002086   -0.030550
N    -0.151663   -1.342365    0.132979   -0.002424   -0.006881   -0.100339
C    -1.304239   -0.578595    0.036693    0.003139    0.009627    0.135099
N    -1.066451    0.755382   -0.362715    0.028807    0.084757    1.128645
C     0.184398    1.423600   -0.155747    0.004033    0.010949    0.148484
O    -2.420198   -1.041826    0.295639   -0.014356   -0.040003   -0.527187
O     0.245579    2.662795    0.003789   -0.017836   -0.053088   -0.711583
H     1.924780   -1.538977    0.152542   -0.007384   -0.022003   -0.289926
H    -0.277816   -2.330761    0.426890   -0.019062   -0.063943   -0.821230
H    -1.891026    1.354817   -0.358737    0.025889    0.077023    1.032163
H     2.325378    0.935845   -0.137751    0.001136    0.001914    0.027603
12
* Frequency(6)  163.9604
C     1.320330    0.515212   -0.116237    0.005506    0.015279    0.202165
C     1.109307   -0.817482    0.039365   -0.000615   -0.002086   -0.030550
N    -0.151852   -1.342902    0.125149   -0.002424   -0.006881   -0.100339
C    -1.303994   -0.577844    0.047235    0.003139    0.009627    0.135099
N    -1.064203    0.761996   -0.274643    0.028807    0.084757    1.128645
C     0.184713    1.424455   -0.144160    0.004033    0.010949    0.148484
O    -2.421318   -1.044947    0.254500   -0.014356   -0.040003   -0.527187
O     0.244188    2.658652   -0.051738   -0.017836   -0.053088   -0.711583
H     1.924204   -1.540694    0.129918   -0.007384   -0.022003   -0.289926
H    -0.279304   -2.335750    0.362807   -0.019062   -0.063943   -0.821230
H    -1.889006    1.360827   -0.278193    0.025889    0.077023    1.032163
H     2.325467    0.935995   -0.135597    0.001136    0.001914    0.027603
12
* Frequency(6)  163.9604
C     1.320888    0.516760   -0.095752    0.005506    0.015279    0.202165
C     1.109245   -0.817693    0.036269   -0.000615   -0.002086   -0.030550
N    -0.152098   -1.343599    0.114981   -0.002424   -0.006881   -0.100339
C    -1.303676   -0.576868    0.060925    0.003139    0.009627    0.135099
N    -1.061284    0.770584   -0.160277    0.028807    0.084757    1.128645
C     0.185122    1.425564   -0.129114    0.004033    0.010949    0.148484
O    -2.422773   -1.049001    0.201081   -0.014356   -0.040003   -0.527187
O     0.242380    2.653273   -0.123842   -0.017836   -0.053088   -0.711583
H     1.923455   -1.542923    0.100540   -0.007384   -0.022003   -0.289926
H    -0.281235   -2.342230    0.279592   -0.019062   -0.063943   -0.821230
H    -1.886383    1.368632   -0.173604    0.025889    0.077023    1.032163
H     2.325582    0.936189   -0.132800    0.001136    0.001914    0.027603
12
* Frequency(6)  163.9604
C     1.321514    0.518496   -0.072777    0.005506    0.015279    0.202165
C     1.109175   -0.817930    0.032797   -0.000615   -0.002086   -0.030550
N    -0.152373   -1.344381    0.103578   -0.002424   -0.006881   -0.100339
C    -1.303319   -0.575774    0.076278    0.003139    0.009627    0.135099
N    -1.058010    0.780216   -0.032013    0.028807    0.084757    1.128645
C     0.185580    1.426809   -0.112240    0.004033    0.010949    0.148484
O    -2.424404   -1.053547    0.141169   -0.014356   -0.040003   -0.527187
O     0.240353    2.647240   -0.204710   -0.017836   -0.053088   -0.711583
H     1.922616   -1.545424    0.067591   -0.007384   -0.022003   -0.289926
H    -0.283402   -2.349496    0.186263   -0.019062   -0.063943   -0.821230
H    -1.883441    1.377385   -0.056304    0.025889    0.077023    1.032163
H     2.325711    0.936406   -0.129663    0.001136    0.001914    0.027603
