12
* (null), Energy   -1000.0000000
C     1.321514    0.518496   -0.072777    0.017753    0.052446    0.707596
C     1.109175   -0.817930    0.032797    0.000828    0.002925    0.045855
N    -0.152373   -1.344381    0.103578   -0.019731   -0.055858   -0.752510
C    -1.303319   -0.575774    0.076278   -0.001839   -0.005359   -0.081617
N    -1.058010    0.780216   -0.032013   -0.004234   -0.011055   -0.154286
C     0.185580    1.426809   -0.112240    0.001464    0.004567    0.060560
O    -2.424404   -1.053547    0.141169    0.014366    0.037416    0.508939
O     0.240353    2.647240   -0.204710   -0.007578   -0.021997   -0.294741
H     1.922616   -1.545424    0.067591    0.002217    0.008048    0.120947
H    -0.283402   -2.349496    0.186263   -0.025006   -0.065703   -0.879160
H    -1.883441    1.377385   -0.056304   -0.002152   -0.005421   -0.083770
H     2.325711    0.936406   -0.129663    0.033295    0.097799    1.315939
12
* Frequency(7)  179.4288
C     1.323531    0.524457    0.007638    0.017753    0.052446    0.707596
C     1.109269   -0.817598    0.038008    0.000828    0.002925    0.045855
N    -0.154616   -1.350729    0.018059   -0.019731   -0.055858   -0.752510
C    -1.303528   -0.576383    0.067003   -0.001839   -0.005359   -0.081617
N    -1.058491    0.778960   -0.049546   -0.004234   -0.011055   -0.154286
C     0.185746    1.427328   -0.105357    0.001464    0.004567    0.060560
O    -2.422772   -1.049294    0.199007    0.014366    0.037416    0.508939
O     0.239492    2.644740   -0.238206   -0.007578   -0.021997   -0.294741
H     1.922868   -1.544509    0.081336    0.002217    0.008048    0.120947
H    -0.286243   -2.356963    0.086351   -0.025006   -0.065703   -0.879160
H    -1.883685    1.376769   -0.065824   -0.002152   -0.005421   -0.083770
H     2.329495    0.947520    0.019886    0.033295    0.097799    1.315939
12
* Frequency(7)  179.4288
C     1.325330    0.529771    0.079338    0.017753    0.052446    0.707596
C     1.109353   -0.817301    0.042655    0.000828    0.002925    0.045855
N    -0.156615   -1.356389   -0.058192   -0.019731   -0.055858   -0.752510
C    -1.303714   -0.576926    0.058733   -0.001839   -0.005359   -0.081617
N    -1.058920    0.777840   -0.065180   -0.004234   -0.011055   -0.154286
C     0.185895    1.427790   -0.099221    0.001464    0.004567    0.060560
O    -2.421316   -1.045503    0.250578    0.014366    0.037416    0.508939
O     0.238724    2.642511   -0.268072   -0.007578   -0.021997   -0.294741
H     1.923093   -1.543694    0.093592    0.002217    0.008048    0.120947
H    -0.288777   -2.363621   -0.002734   -0.025006   -0.065703   -0.879160
H    -1.883903    1.376220   -0.074313   -0.002152   -0.005421   -0.083770
H     2.332868    0.957430    0.153230    0.033295    0.097799    1.315939
12
* Frequency(7)  179.4288
C     1.326715    0.533864    0.134555    0.017753    0.052446    0.707596
C     1.109418   -0.817073    0.046233    0.000828    0.002925    0.045855
N    -0.158155   -1.360748   -0.116913   -0.019731   -0.055858   -0.752510
C    -1.303858   -0.577344    0.052364   -0.001839   -0.005359   -0.081617
N    -1.059251    0.776977   -0.077220   -0.004234   -0.011055   -0.154286
C     0.186009    1.428147   -0.094495    0.001464    0.004567    0.060560
O    -2.420195   -1.042583    0.290292    0.014366    0.037416    0.508939
O     0.238133    2.640795   -0.291072   -0.007578   -0.021997   -0.294741
H     1.923266   -1.543066    0.103030    0.002217    0.008048    0.120947
H    -0.290728   -2.368748   -0.071338   -0.025006   -0.065703   -0.879160
H    -1.884071    1.375797   -0.080850   -0.002152   -0.005421   -0.083770
H     2.335466    0.965062    0.255918    0.033295    0.097799    1.315939
12
* Frequency(7)  179.4288
C     1.327537    0.536291    0.167304    0.017753    0.052446    0.707596
C     1.109456   -0.816937    0.048355    0.000828    0.002925    0.045855
N    -0.159068   -1.363333   -0.151741   -0.019731   -0.055858   -0.752510
C    -1.303943   -0.577592    0.048586   -0.001839   -0.005359   -0.081617
N    -1.059447    0.776466   -0.084360   -0.004234   -0.011055   -0.154286
C     0.186076    1.428358   -0.091692    0.001464    0.004567    0.060560
O    -2.419530   -1.040852    0.313847    0.014366    0.037416    0.508939
O     0.237782    2.639777   -0.304713   -0.007578   -0.021997   -0.294741
H     1.923368   -1.542693    0.108627    0.002217    0.008048    0.120947
H    -0.291886   -2.371789   -0.112027   -0.025006   -0.065703   -0.879160
H    -1.884171    1.375546   -0.084727   -0.002152   -0.005421   -0.083770
H     2.337007    0.969588    0.316822    0.033295    0.097799    1.315939
12
* Frequency(7)  179.4288
C     1.327706    0.536790    0.174036    0.017753    0.052446    0.707596
C     1.109464   -0.816910    0.048792    0.000828    0.002925    0.045855
N    -0.159256   -1.363865   -0.158901   -0.019731   -0.055858   -0.752510
C    -1.303961   -0.577643    0.047810   -0.001839   -0.005359   -0.081617
N    -1.059487    0.776360   -0.085828   -0.004234   -0.011055   -0.154286
C     0.186090    1.428402   -0.091116    0.001464    0.004567    0.060560
O    -2.419393   -1.040496    0.318689    0.014366    0.037416    0.508939
O     0.237710    2.639567   -0.307517   -0.007578   -0.021997   -0.294741
H     1.923389   -1.542617    0.109778    0.002217    0.008048    0.120947
H    -0.292124   -2.372414   -0.120392   -0.025006   -0.065703   -0.879160
H    -1.884191    1.375494   -0.085524   -0.002152   -0.005421   -0.083770
H     2.337324    0.970519    0.329342    0.033295    0.097799    1.315939
12
* Frequency(7)  179.4288
C     1.327204    0.535306    0.154022    0.017753    0.052446    0.707596
C     1.109441   -0.816992    0.047495    0.000828    0.002925    0.045855
N    -0.158698   -1.362285   -0.137617   -0.019731   -0.055858   -0.752510
C    -1.303909   -0.577492    0.050118   -0.001839   -0.005359   -0.081617
N    -1.059367    0.776673   -0.081465   -0.004234   -0.011055   -0.154286
C     0.186049    1.428272   -0.092829    0.001464    0.004567    0.060560
O    -2.419800   -1.041554    0.304294    0.014366    0.037416    0.508939
O     0.237924    2.640189   -0.299181   -0.007578   -0.021997   -0.294741
H     1.923327   -1.542844    0.106357    0.002217    0.008048    0.120947
H    -0.291416   -2.370555   -0.095526   -0.025006   -0.065703   -0.879160
H    -1.884130    1.375648   -0.083154   -0.002152   -0.005421   -0.083770
H     2.336383    0.967753    0.292122    0.033295    0.097799    1.315939
12
* Frequency(7)  179.4288
C     1.326085    0.532001    0.109432    0.017753    0.052446    0.707596
C     1.109388   -0.817177    0.044605    0.000828    0.002925    0.045855
N    -0.157454   -1.358765   -0.090196   -0.019731   -0.055858   -0.752510
C    -1.303793   -0.577154    0.055262   -0.001839   -0.005359   -0.081617
N    -1.059100    0.777370   -0.071742   -0.004234   -0.011055   -0.154286
C     0.185957    1.427985   -0.096645    0.001464    0.004567    0.060560
O    -2.420705   -1.043912    0.272222    0.014366    0.037416    0.508939
O     0.238402    2.641576   -0.280607   -0.007578   -0.021997   -0.294741
H     1.923187   -1.543351    0.098735    0.002217    0.008048    0.120947
H    -0.289841   -2.366415   -0.040123   -0.025006   -0.065703   -0.879160
H    -1.883995    1.375989   -0.077875   -0.002152   -0.005421   -0.083770
H     2.334284    0.961590    0.209195    0.033295    0.097799    1.315939
12
* Frequency(7)  179.4288
C     1.324471    0.527233    0.045096    0.017753    0.052446    0.707596
C     1.109313   -0.817443    0.040436    0.000828    0.002925    0.045855
N    -0.155660   -1.353686   -0.021776   -0.019731   -0.055858   -0.752510
C    -1.303625   -0.576667    0.062682   -0.001839   -0.005359   -0.081617
N    -1.058715    0.778375   -0.057714   -0.004234   -0.011055   -0.154286
C     0.185824    1.427569   -0.102151    0.001464    0.004567    0.060560
O    -2.422011   -1.047314    0.225949    0.014366    0.037416    0.508939
O     0.239091    2.643576   -0.253809   -0.007578   -0.021997   -0.294741
H     1.922985   -1.544083    0.087739    0.002217    0.008048    0.120947
H    -0.287567   -2.360441    0.039811   -0.025006   -0.065703   -0.879160
H    -1.883799    1.376482   -0.070259   -0.002152   -0.005421   -0.083770
H     2.331257    0.952698    0.089548    0.033295    0.097799    1.315939
12
* Frequency(7)  179.4288
C     1.322537    0.521518   -0.032013    0.017753    0.052446    0.707596
C     1.109223   -0.817762    0.035439    0.000828    0.002925    0.045855
N    -0.153510   -1.347599    0.060228   -0.019731   -0.055858   -0.752510
C    -1.303425   -0.576083    0.071576   -0.001839   -0.005359   -0.081617
N    -1.058254    0.779580   -0.040901   -0.004234   -0.011055   -0.154286
C     0.185664    1.427072   -0.108751    0.001464    0.004567    0.060560
O    -2.423577   -1.051391    0.170488    0.014366    0.037416    0.508939
O     0.239917    2.645973   -0.221690   -0.007578   -0.021997   -0.294741
H     1.922744   -1.544960    0.074559    0.002217    0.008048    0.120947
H    -0.284842   -2.353281    0.135617   -0.025006   -0.065703   -0.879160
H    -1.883565    1.377073   -0.061130   -0.002152   -0.005421   -0.083770
H     2.327629    0.942040   -0.053854    0.033295    0.097799    1.315939
12
* Frequency(7)  179.4288
C     1.320491    0.515475   -0.113540    0.017753    0.052446    0.707596
C     1.109128   -0.818099    0.030156    0.000828    0.002925    0.045855
N    -0.151237   -1.341163    0.146929   -0.019731   -0.055858   -0.752510
C    -1.303213   -0.575465    0.080980   -0.001839   -0.005359   -0.081617
N    -1.057766    0.780853   -0.023124   -0.004234   -0.011055   -0.154286
C     0.185496    1.426545   -0.115728    0.001464    0.004567    0.060560
O    -2.425232   -1.055702    0.111850    0.014366    0.037416    0.508939
O     0.240790    2.648507   -0.187731   -0.007578   -0.021997   -0.294741
H     1.922488   -1.545888    0.060623    0.002217    0.008048    0.120947
H    -0.281961   -2.345711    0.236910   -0.025006   -0.065703   -0.879160
H    -1.883317    1.377697   -0.051479   -0.002152   -0.005421   -0.083770
H     2.323793    0.930772   -0.205472    0.033295    0.097799    1.315939
12
* Frequency(7)  179.4288
C     1.318557    0.509760   -0.190649    0.017753    0.052446    0.707596
C     1.109037   -0.818417    0.025159    0.000828    0.002925    0.045855
N    -0.149087   -1.335076    0.228933   -0.019731   -0.055858   -0.752510
C    -1.303013   -0.574881    0.089874   -0.001839   -0.005359   -0.081617
N    -1.057305    0.782058   -0.006311   -0.004234   -0.011055   -0.154286
C     0.185336    1.426048   -0.122328    0.001464    0.004567    0.060560
O    -2.426798   -1.059780    0.056389    0.014366    0.037416    0.508939
O     0.241616    2.650904   -0.155612   -0.007578   -0.021997   -0.294741
H     1.922247   -1.546765    0.047443    0.002217    0.008048    0.120947
H    -0.279236   -2.338552    0.332715   -0.025006   -0.065703   -0.879160
H    -1.883082    1.378288   -0.042350   -0.002152   -0.005421   -0.083770
H     2.320164    0.920115   -0.348874    0.033295    0.097799    1.315939
12
* Frequency(7)  179.4288
C     1.316942    0.504991   -0.254985    0.017753    0.052446    0.707596
C     1.108962   -0.818683    0.020989    0.000828    0.002925    0.045855
N    -0.147293   -1.329998    0.297352   -0.019731   -0.055858   -0.752510
C    -1.302846   -0.574394    0.097295   -0.001839   -0.005359   -0.081617
N    -1.056920    0.783063    0.007717   -0.004234   -0.011055   -0.154286
C     0.185203    1.425633   -0.127834    0.001464    0.004567    0.060560
O    -2.428104   -1.063182    0.010115    0.014366    0.037416    0.508939
O     0.242305    2.652904   -0.128813   -0.007578   -0.021997   -0.294741
H     1.922045   -1.547496    0.036447    0.002217    0.008048    0.120947
H    -0.276962   -2.332578    0.412650   -0.025006   -0.065703   -0.879160
H    -1.882887    1.378781   -0.034733   -0.002152   -0.005421   -0.083770
H     2.317137    0.911223   -0.468522    0.033295    0.097799    1.315939
12
* Frequency(7)  179.4288
C     1.315824    0.501686   -0.299576    0.017753    0.052446    0.707596
C     1.108910   -0.818868    0.018100    0.000828    0.002925    0.045855
N    -0.146049   -1.326478    0.344774   -0.019731   -0.055858   -0.752510
C    -1.302730   -0.574056    0.102438   -0.001839   -0.005359   -0.081617
N    -1.056653    0.783760    0.017439   -0.004234   -0.011055   -0.154286
C     0.185111    1.425345   -0.131650    0.001464    0.004567    0.060560
O    -2.429009   -1.065539   -0.021957    0.014366    0.037416    0.508939
O     0.242782    2.654290   -0.110240   -0.007578   -0.021997   -0.294741
H     1.921906   -1.548004    0.028825    0.002217    0.008048    0.120947
H    -0.275387   -2.328437    0.468052   -0.025006   -0.065703   -0.879160
H    -1.882751    1.379123   -0.029454   -0.002152   -0.005421   -0.083770
H     2.315039    0.905060   -0.551449    0.033295    0.097799    1.315939
12
* Frequency(7)  179.4288
C     1.315322    0.500203   -0.319590    0.017753    0.052446    0.707596
C     1.108887   -0.818950    0.016803    0.000828    0.002925    0.045855
N    -0.145491   -1.324898    0.366057   -0.019731   -0.055858   -0.752510
C    -1.302678   -0.573905    0.104747   -0.001839   -0.005359   -0.081617
N    -1.056533    0.784072    0.021803   -0.004234   -0.011055   -0.154286
C     0.185069    1.425216   -0.133363    0.001464    0.004567    0.060560
O    -2.429415   -1.066598   -0.036352    0.014366    0.037416    0.508939
O     0.242997    2.654913   -0.101903   -0.007578   -0.021997   -0.294741
H     1.921843   -1.548231    0.025404    0.002217    0.008048    0.120947
H    -0.274679   -2.326579    0.492918   -0.025006   -0.065703   -0.879160
H    -1.882690    1.379276   -0.027085   -0.002152   -0.005421   -0.083770
H     2.314097    0.902294   -0.588669    0.033295    0.097799    1.315939
12
* Frequency(7)  179.4288
C     1.315491    0.500702   -0.312857    0.017753    0.052446    0.707596
C     1.108895   -0.818923    0.017239    0.000828    0.002925    0.045855
N    -0.145679   -1.325429    0.358898   -0.019731   -0.055858   -0.752510
C    -1.302695   -0.573956    0.103970   -0.001839   -0.005359   -0.081617
N    -1.056574    0.783967    0.020335   -0.004234   -0.011055   -0.154286
C     0.185083    1.425259   -0.132787    0.001464    0.004567    0.060560
O    -2.429279   -1.066242   -0.031509    0.014366    0.037416    0.508939
O     0.242925    2.654703   -0.104708   -0.007578   -0.021997   -0.294741
H     1.921864   -1.548155    0.026555    0.002217    0.008048    0.120947
H    -0.274917   -2.327204    0.484554   -0.025006   -0.065703   -0.879160
H    -1.882711    1.379224   -0.027882   -0.002152   -0.005421   -0.083770
H     2.314414    0.903224   -0.576148    0.033295    0.097799    1.315939
12
* Frequency(7)  179.4288
C     1.316312    0.503129   -0.280108    0.017753    0.052446    0.707596
C     1.108933   -0.818787    0.019361    0.000828    0.002925    0.045855
N    -0.146592   -1.328014    0.324070   -0.019731   -0.055858   -0.752510
C    -1.302780   -0.574204    0.100193   -0.001839   -0.005359   -0.081617
N    -1.056770    0.783456    0.013195   -0.004234   -0.011055   -0.154286
C     0.185151    1.425470   -0.129984    0.001464    0.004567    0.060560
O    -2.428614   -1.064510   -0.007955    0.014366    0.037416    0.508939
O     0.242574    2.653685   -0.118349   -0.007578   -0.021997   -0.294741
H     1.921967   -1.547782    0.032152    0.002217    0.008048    0.120947
H    -0.276075   -2.330245    0.443864   -0.025006   -0.065703   -0.879160
H    -1.882810    1.378973   -0.031759   -0.002152   -0.005421   -0.083770
H     2.315955    0.907750   -0.515244    0.033295    0.097799    1.315939
12
* Frequency(7)  179.4288
C     1.317697    0.507222   -0.224892    0.017753    0.052446    0.707596
C     1.108997   -0.818559    0.022940    0.000828    0.002925    0.045855
N    -0.148132   -1.332373    0.265349   -0.019731   -0.055858   -0.752510
C    -1.302924   -0.574622    0.093824   -0.001839   -0.005359   -0.081617
N    -1.057100    0.782593    0.001155   -0.004234   -0.011055   -0.154286
C     0.185265    1.425827   -0.125258    0.001464    0.004567    0.060560
O    -2.427493   -1.061590    0.031760    0.014366    0.037416    0.508939
O     0.241983    2.651969   -0.141348   -0.007578   -0.021997   -0.294741
H     1.922140   -1.547154    0.041590    0.002217    0.008048    0.120947
H    -0.278026   -2.335372    0.375260   -0.025006   -0.065703   -0.879160
H    -1.882978    1.378550   -0.038296   -0.002152   -0.005421   -0.083770
H     2.318553    0.915382   -0.412556    0.033295    0.097799    1.315939
12
* Frequency(7)  179.4288
C     1.319496    0.512536   -0.153191    0.017753    0.052446    0.707596
C     1.109081   -0.818263    0.027586    0.000828    0.002925    0.045855
N    -0.150131   -1.338033    0.189097   -0.019731   -0.055858   -0.752510
C    -1.303110   -0.575165    0.085554   -0.001839   -0.005359   -0.081617
N    -1.057529    0.781473   -0.014479   -0.004234   -0.011055   -0.154286
C     0.185413    1.426290   -0.119122    0.001464    0.004567    0.060560
O    -2.426037   -1.057799    0.083330    0.014366    0.037416    0.508939
O     0.241215    2.649740   -0.171214   -0.007578   -0.021997   -0.294741
H     1.922364   -1.546339    0.053846    0.002217    0.008048    0.120947
H    -0.280560   -2.342030    0.286175   -0.025006   -0.065703   -0.879160
H    -1.883196    1.378001   -0.046784   -0.002152   -0.005421   -0.083770
H     2.321927    0.925292   -0.279213    0.033295    0.097799    1.315939
12
* Frequency(7)  179.4288
C     1.321514    0.518496   -0.072777    0.017753    0.052446    0.707596
C     1.109175   -0.817930    0.032797    0.000828    0.002925    0.045855
N    -0.152373   -1.344381    0.103578   -0.019731   -0.055858   -0.752510
C    -1.303319   -0.575774    0.076278   -0.001839   -0.005359   -0.081617
N    -1.058010    0.780216   -0.032013   -0.004234   -0.011055   -0.154286
C     0.185580    1.426809   -0.112240    0.001464    0.004567    0.060560
O    -2.424404   -1.053547    0.141169    0.014366    0.037416    0.508939
O     0.240353    2.647240   -0.204710   -0.007578   -0.021997   -0.294741
H     1.922616   -1.545424    0.067591    0.002217    0.008048    0.120947
H    -0.283402   -2.349496    0.186263   -0.025006   -0.065703   -0.879160
H    -1.883441    1.377385   -0.056304   -0.002152   -0.005421   -0.083770
H     2.325711    0.936406   -0.129663    0.033295    0.097799    1.315939
