12
* (null), Energy   -1000.0000000
C     1.625816    0.316601   -0.065250   -0.156697   -0.072688    0.009482
C     1.413215   -1.019528    0.041288   -0.033004    0.043124   -0.002408
N     0.151412   -1.546563    0.113379    0.002518    0.000338   -0.000092
C    -1.001718   -0.778391    0.084609    0.000371    0.000436   -0.000038
N    -0.754728    0.578612   -0.023325    0.000732   -0.000018   -0.000022
C     0.489437    1.226278   -0.105125    0.004669   -0.004846    0.000255
O    -2.121379   -1.255957    0.147970   -0.000016   -0.000056    0.000001
O     0.544888    2.445398   -0.199422   -0.000427    0.001246   -0.000085
H     2.227146   -1.747036    0.075476    0.395369   -0.361702    0.017166
H     0.020614   -2.552189    0.190181   -0.002222    0.008771   -0.000588
H    -1.580237    1.175741   -0.048115   -0.000204    0.000193   -0.000015
H     2.630238    0.734097   -0.122298    1.769279    0.734228   -0.100517
12
* Frequency(33) 3242.8030
C     1.608008    0.308341   -0.064173   -0.156697   -0.072688    0.009482
C     1.409464   -1.014628    0.041014   -0.033004    0.043124   -0.002408
N     0.151698   -1.546525    0.113369    0.002518    0.000338   -0.000092
C    -1.001676   -0.778341    0.084605    0.000371    0.000436   -0.000038
N    -0.754645    0.578610   -0.023327    0.000732   -0.000018   -0.000022
C     0.489968    1.225728   -0.105096    0.004669   -0.004846    0.000255
O    -2.121381   -1.255963    0.147970   -0.000016   -0.000056    0.000001
O     0.544839    2.445540   -0.199432   -0.000427    0.001246   -0.000085
H     2.272078   -1.788142    0.077426    0.395369   -0.361702    0.017166
H     0.020362   -2.551192    0.190114   -0.002222    0.008771   -0.000588
H    -1.580261    1.175763   -0.048117   -0.000204    0.000193   -0.000015
H     2.831307    0.817538   -0.133721    1.769279    0.734228   -0.100517
12
* Frequency(33) 3242.8030
C     1.592130    0.300976   -0.063212   -0.156697   -0.072688    0.009482
C     1.406120   -1.010258    0.040770   -0.033004    0.043124   -0.002408
N     0.151953   -1.546491    0.113359    0.002518    0.000338   -0.000092
C    -1.001638   -0.778297    0.084601    0.000371    0.000436   -0.000038
N    -0.754571    0.578608   -0.023329    0.000732   -0.000018   -0.000022
C     0.490441    1.225236   -0.105070    0.004669   -0.004846    0.000255
O    -2.121383   -1.255969    0.147970   -0.000016   -0.000056    0.000001
O     0.544796    2.445666   -0.199440   -0.000427    0.001246   -0.000085
H     2.312140   -1.824793    0.079166    0.395369   -0.361702    0.017166
H     0.020137   -2.550304    0.190055   -0.002222    0.008771   -0.000588
H    -1.580281    1.175783   -0.048119   -0.000204    0.000193   -0.000015
H     3.010587    0.891937   -0.143906    1.769279    0.734228   -0.100517
12
* Frequency(33) 3242.8030
C     1.579902    0.295303   -0.062472   -0.156697   -0.072688    0.009482
C     1.403544   -1.006893    0.040582   -0.033004    0.043124   -0.002408
N     0.152150   -1.546464    0.113352    0.002518    0.000338   -0.000092
C    -1.001609   -0.778263    0.084598    0.000371    0.000436   -0.000038
N    -0.754514    0.578607   -0.023331    0.000732   -0.000018   -0.000022
C     0.490805    1.224858   -0.105050    0.004669   -0.004846    0.000255
O    -2.121384   -1.255973    0.147970   -0.000016   -0.000056    0.000001
O     0.544763    2.445763   -0.199447   -0.000427    0.001246   -0.000085
H     2.342993   -1.853018    0.080505    0.395369   -0.361702    0.017166
H     0.019963   -2.549619    0.190009   -0.002222    0.008771   -0.000588
H    -1.580297    1.175798   -0.048120   -0.000204    0.000193   -0.000015
H     3.148651    0.949232   -0.151750    1.769279    0.734228   -0.100517
12
* Frequency(33) 3242.8030
C     1.572650    0.291939   -0.062033   -0.156697   -0.072688    0.009482
C     1.402017   -1.004897    0.040471   -0.033004    0.043124   -0.002408
N     0.152267   -1.546449    0.113348    0.002518    0.000338   -0.000092
C    -1.001592   -0.778243    0.084596    0.000371    0.000436   -0.000038
N    -0.754480    0.578606   -0.023332    0.000732   -0.000018   -0.000022
C     0.491021    1.224634   -0.105038    0.004669   -0.004846    0.000255
O    -2.121385   -1.255976    0.147970   -0.000016   -0.000056    0.000001
O     0.544743    2.445821   -0.199451   -0.000427    0.001246   -0.000085
H     2.361291   -1.869758    0.081300    0.395369   -0.361702    0.017166
H     0.019861   -2.549213    0.189981   -0.002222    0.008771   -0.000588
H    -1.580307    1.175807   -0.048121   -0.000204    0.000193   -0.000015
H     3.230536    0.983214   -0.156402    1.769279    0.734228   -0.100517
12
* Frequency(33) 3242.8030
C     1.571159    0.291248   -0.061943   -0.156697   -0.072688    0.009482
C     1.401703   -1.004487    0.040448   -0.033004    0.043124   -0.002408
N     0.152291   -1.546445    0.113347    0.002518    0.000338   -0.000092
C    -1.001588   -0.778239    0.084596    0.000371    0.000436   -0.000038
N    -0.754473    0.578606   -0.023332    0.000732   -0.000018   -0.000022
C     0.491066    1.224588   -0.105036    0.004669   -0.004846    0.000255
O    -2.121385   -1.255976    0.147970   -0.000016   -0.000056    0.000001
O     0.544739    2.445833   -0.199452   -0.000427    0.001246   -0.000085
H     2.365053   -1.873200    0.081463    0.395369   -0.361702    0.017166
H     0.019839   -2.549130    0.189976   -0.002222    0.008771   -0.000588
H    -1.580309    1.175809   -0.048121   -0.000204    0.000193   -0.000015
H     3.247370    0.990199   -0.157359    1.769279    0.734228   -0.100517
12
* Frequency(33) 3242.8030
C     1.575591    0.293304   -0.062211   -0.156697   -0.072688    0.009482
C     1.402636   -1.005706    0.040516   -0.033004    0.043124   -0.002408
N     0.152219   -1.546455    0.113350    0.002518    0.000338   -0.000092
C    -1.001599   -0.778251    0.084597    0.000371    0.000436   -0.000038
N    -0.754494    0.578607   -0.023332    0.000732   -0.000018   -0.000022
C     0.490934    1.224725   -0.105043    0.004669   -0.004846    0.000255
O    -2.121384   -1.255975    0.147970   -0.000016   -0.000056    0.000001
O     0.544751    2.445797   -0.199449   -0.000427    0.001246   -0.000085
H     2.353870   -1.862969    0.080978    0.395369   -0.361702    0.017166
H     0.019902   -2.549378    0.189993   -0.002222    0.008771   -0.000588
H    -1.580303    1.175803   -0.048120   -0.000204    0.000193   -0.000015
H     3.197328    0.969432   -0.154515    1.769279    0.734228   -0.100517
12
* Frequency(33) 3242.8030
C     1.585466    0.297884   -0.062808   -0.156697   -0.072688    0.009482
C     1.404716   -1.008424    0.040668   -0.033004    0.043124   -0.002408
N     0.152061   -1.546476    0.113355    0.002518    0.000338   -0.000092
C    -1.001622   -0.778278    0.084600    0.000371    0.000436   -0.000038
N    -0.754540    0.578608   -0.023330    0.000732   -0.000018   -0.000022
C     0.490640    1.225030   -0.105059    0.004669   -0.004846    0.000255
O    -2.121383   -1.255971    0.147970   -0.000016   -0.000056    0.000001
O     0.544778    2.445719   -0.199444   -0.000427    0.001246   -0.000085
H     2.328955   -1.840176    0.079896    0.395369   -0.361702    0.017166
H     0.020042   -2.549931    0.190030   -0.002222    0.008771   -0.000588
H    -1.580290    1.175791   -0.048119   -0.000204    0.000193   -0.000015
H     3.085833    0.923163   -0.148181    1.769279    0.734228   -0.100517
12
* Frequency(33) 3242.8030
C     1.599713    0.304493   -0.063671   -0.156697   -0.072688    0.009482
C     1.407717   -1.012345    0.040887   -0.033004    0.043124   -0.002408
N     0.151832   -1.546507    0.113364    0.002518    0.000338   -0.000092
C    -1.001656   -0.778318    0.084603    0.000371    0.000436   -0.000038
N    -0.754606    0.578609   -0.023328    0.000732   -0.000018   -0.000022
C     0.490215    1.225471   -0.105082    0.004669   -0.004846    0.000255
O    -2.121382   -1.255966    0.147970   -0.000016   -0.000056    0.000001
O     0.544817    2.445606   -0.199436   -0.000427    0.001246   -0.000085
H     2.293007   -1.807289    0.078335    0.395369   -0.361702    0.017166
H     0.020244   -2.550728    0.190083   -0.002222    0.008771   -0.000588
H    -1.580271    1.175774   -0.048118   -0.000204    0.000193   -0.000015
H     2.924967    0.856406   -0.139042    1.769279    0.734228   -0.100517
12
* Frequency(33) 3242.8030
C     1.616789    0.312414   -0.064704   -0.156697   -0.072688    0.009482
C     1.411314   -1.017044    0.041149   -0.033004    0.043124   -0.002408
N     0.151557   -1.546544    0.113374    0.002518    0.000338   -0.000092
C    -1.001696   -0.778366    0.084607    0.000371    0.000436   -0.000038
N    -0.754686    0.578611   -0.023326    0.000732   -0.000018   -0.000022
C     0.489706    1.225999   -0.105110    0.004669   -0.004846    0.000255
O    -2.121380   -1.255960    0.147970   -0.000016   -0.000056    0.000001
O     0.544863    2.445470   -0.199427   -0.000427    0.001246   -0.000085
H     2.249923   -1.767873    0.076464    0.395369   -0.361702    0.017166
H     0.020486   -2.551684    0.190147   -0.002222    0.008771   -0.000588
H    -1.580249    1.175752   -0.048116   -0.000204    0.000193   -0.000015
H     2.732162    0.776395   -0.128088    1.769279    0.734228   -0.100517
12
* Frequency(33) 3242.8030
C     1.634843    0.320789   -0.065796   -0.156697   -0.072688    0.009482
C     1.415116   -1.022013    0.041427   -0.033004    0.043124   -0.002408
N     0.151267   -1.546583    0.113384    0.002518    0.000338   -0.000092
C    -1.001739   -0.778416    0.084612    0.000371    0.000436   -0.000038
N    -0.754770    0.578613   -0.023323    0.000732   -0.000018   -0.000022
C     0.489168    1.226558   -0.105140    0.004669   -0.004846    0.000255
O    -2.121378   -1.255954    0.147970   -0.000016   -0.000056    0.000001
O     0.544912    2.445326   -0.199417   -0.000427    0.001246   -0.000085
H     2.204370   -1.726199    0.074487    0.395369   -0.361702    0.017166
H     0.020742   -2.552694    0.190215   -0.002222    0.008771   -0.000588
H    -1.580226    1.175730   -0.048115   -0.000204    0.000193   -0.000015
H     2.528313    0.691800   -0.116507    1.769279    0.734228   -0.100517
12
* Frequency(33) 3242.8030
C     1.651918    0.328710   -0.066830   -0.156697   -0.072688    0.009482
C     1.418713   -1.026712    0.041689   -0.033004    0.043124   -0.002408
N     0.150993   -1.546620    0.113394    0.002518    0.000338   -0.000092
C    -1.001779   -0.778463    0.084616    0.000371    0.000436   -0.000038
N    -0.754850    0.578615   -0.023321    0.000732   -0.000018   -0.000022
C     0.488659    1.227086   -0.105167    0.004669   -0.004846    0.000255
O    -2.121377   -1.255947    0.147970   -0.000016   -0.000056    0.000001
O     0.544959    2.445190   -0.199408   -0.000427    0.001246   -0.000085
H     2.161285   -1.686783    0.072616    0.395369   -0.361702    0.017166
H     0.020984   -2.553650    0.190279   -0.002222    0.008771   -0.000588
H    -1.580203    1.175709   -0.048113   -0.000204    0.000193   -0.000015
H     2.335508    0.611788   -0.105553    1.769279    0.734228   -0.100517
12
* Frequency(33) 3242.8030
C     1.666165    0.335319   -0.067692   -0.156697   -0.072688    0.009482
C     1.421714   -1.030633    0.041908   -0.033004    0.043124   -0.002408
N     0.150764   -1.546650    0.113403    0.002518    0.000338   -0.000092
C    -1.001813   -0.778503    0.084619    0.000371    0.000436   -0.000038
N    -0.754917    0.578617   -0.023319    0.000732   -0.000018   -0.000022
C     0.488235    1.227526   -0.105190    0.004669   -0.004846    0.000255
O    -2.121375   -1.255942    0.147970   -0.000016   -0.000056    0.000001
O     0.544998    2.445077   -0.199400   -0.000427    0.001246   -0.000085
H     2.125337   -1.653897    0.071055    0.395369   -0.361702    0.017166
H     0.021186   -2.554448    0.190332   -0.002222    0.008771   -0.000588
H    -1.580185    1.175692   -0.048111   -0.000204    0.000193   -0.000015
H     2.174642    0.545031   -0.096414    1.769279    0.734228   -0.100517
12
* Frequency(33) 3242.8030
C     1.676040    0.339899   -0.068289   -0.156697   -0.072688    0.009482
C     1.423794   -1.033350    0.042060   -0.033004    0.043124   -0.002408
N     0.150605   -1.546672    0.113408    0.002518    0.000338   -0.000092
C    -1.001837   -0.778530    0.084621    0.000371    0.000436   -0.000038
N    -0.754963    0.578618   -0.023318    0.000732   -0.000018   -0.000022
C     0.487941    1.227832   -0.105207    0.004669   -0.004846    0.000255
O    -2.121374   -1.255939    0.147970   -0.000016   -0.000056    0.000001
O     0.545025    2.444999   -0.199395   -0.000427    0.001246   -0.000085
H     2.100422   -1.631103    0.069974    0.395369   -0.361702    0.017166
H     0.021326   -2.555000    0.190369   -0.002222    0.008771   -0.000588
H    -1.580172    1.175679   -0.048110   -0.000204    0.000193   -0.000015
H     2.063147    0.498762   -0.090080    1.769279    0.734228   -0.100517
12
* Frequency(33) 3242.8030
C     1.680472    0.341955   -0.068558   -0.156697   -0.072688    0.009482
C     1.424727   -1.034570    0.042128   -0.033004    0.043124   -0.002408
N     0.150534   -1.546681    0.113411    0.002518    0.000338   -0.000092
C    -1.001847   -0.778543    0.084623    0.000371    0.000436   -0.000038
N    -0.754984    0.578618   -0.023317    0.000732   -0.000018   -0.000022
C     0.487809    1.227969   -0.105214    0.004669   -0.004846    0.000255
O    -2.121374   -1.255937    0.147970   -0.000016   -0.000056    0.000001
O     0.545037    2.444963   -0.199392   -0.000427    0.001246   -0.000085
H     2.089240   -1.620873    0.069488    0.395369   -0.361702    0.017166
H     0.021389   -2.555248    0.190386   -0.002222    0.008771   -0.000588
H    -1.580166    1.175674   -0.048110   -0.000204    0.000193   -0.000015
H     2.013105    0.477995   -0.087237    1.769279    0.734228   -0.100517
12
* Frequency(33) 3242.8030
C     1.678981    0.341264   -0.068467   -0.156697   -0.072688    0.009482
C     1.424413   -1.034160    0.042105   -0.033004    0.043124   -0.002408
N     0.150558   -1.546678    0.113410    0.002518    0.000338   -0.000092
C    -1.001844   -0.778539    0.084622    0.000371    0.000436   -0.000038
N    -0.754977    0.578618   -0.023317    0.000732   -0.000018   -0.000022
C     0.487853    1.227923   -0.105211    0.004669   -0.004846    0.000255
O    -2.121374   -1.255938    0.147970   -0.000016   -0.000056    0.000001
O     0.545033    2.444975   -0.199393   -0.000427    0.001246   -0.000085
H     2.093001   -1.624314    0.069651    0.395369   -0.361702    0.017166
H     0.021368   -2.555165    0.190380   -0.002222    0.008771   -0.000588
H    -1.580168    1.175676   -0.048110   -0.000204    0.000193   -0.000015
H     2.029939    0.484981   -0.088193    1.769279    0.734228   -0.100517
12
* Frequency(33) 3242.8030
C     1.671729    0.337900   -0.068028   -0.156697   -0.072688    0.009482
C     1.422886   -1.032164    0.041994   -0.033004    0.043124   -0.002408
N     0.150674   -1.546662    0.113406    0.002518    0.000338   -0.000092
C    -1.001826   -0.778518    0.084620    0.000371    0.000436   -0.000038
N    -0.754943    0.578617   -0.023318    0.000732   -0.000018   -0.000022
C     0.488069    1.227698   -0.105200    0.004669   -0.004846    0.000255
O    -2.121375   -1.255940    0.147970   -0.000016   -0.000056    0.000001
O     0.545013    2.445033   -0.199397   -0.000427    0.001246   -0.000085
H     2.111300   -1.641055    0.070446    0.395369   -0.361702    0.017166
H     0.021265   -2.554759    0.190353   -0.002222    0.008771   -0.000588
H    -1.580178    1.175685   -0.048111   -0.000204    0.000193   -0.000015
H     2.111824    0.518962   -0.092845    1.769279    0.734228   -0.100517
12
* Frequency(33) 3242.8030
C     1.659501    0.332227   -0.067289   -0.156697   -0.072688    0.009482
C     1.420310   -1.028799    0.041806   -0.033004    0.043124   -0.002408
N     0.150871   -1.546636    0.113399    0.002518    0.000338   -0.000092
C    -1.001797   -0.778484    0.084617    0.000371    0.000436   -0.000038
N    -0.754886    0.578616   -0.023320    0.000732   -0.000018   -0.000022
C     0.488433    1.227320   -0.105180    0.004669   -0.004846    0.000255
O    -2.121376   -1.255945    0.147970   -0.000016   -0.000056    0.000001
O     0.544980    2.445130   -0.199404   -0.000427    0.001246   -0.000085
H     2.142152   -1.669280    0.071785    0.395369   -0.361702    0.017166
H     0.021092   -2.554075    0.190307   -0.002222    0.008771   -0.000588
H    -1.580194    1.175700   -0.048112   -0.000204    0.000193   -0.000015
H     2.249888    0.576257   -0.100689    1.769279    0.734228   -0.100517
12
* Frequency(33) 3242.8030
C     1.643623    0.324862   -0.066328   -0.156697   -0.072688    0.009482
C     1.416966   -1.024429    0.041562   -0.033004    0.043124   -0.002408
N     0.151126   -1.546602    0.113389    0.002518    0.000338   -0.000092
C    -1.001760   -0.778440    0.084614    0.000371    0.000436   -0.000038
N    -0.754812    0.578614   -0.023322    0.000732   -0.000018   -0.000022
C     0.488907    1.226829   -0.105154    0.004669   -0.004846    0.000255
O    -2.121378   -1.255950    0.147970   -0.000016   -0.000056    0.000001
O     0.544936    2.445256   -0.199412   -0.000427    0.001246   -0.000085
H     2.182215   -1.705931    0.073525    0.395369   -0.361702    0.017166
H     0.020867   -2.553186    0.190248   -0.002222    0.008771   -0.000588
H    -1.580214    1.175719   -0.048114   -0.000204    0.000193   -0.000015
H     2.429168    0.650656   -0.110874    1.769279    0.734228   -0.100517
12
* Frequency(33) 3242.8030
C     1.625816    0.316601   -0.065250   -0.156697   -0.072688    0.009482
C     1.413215   -1.019528    0.041288   -0.033004    0.043124   -0.002408
N     0.151412   -1.546563    0.113379    0.002518    0.000338   -0.000092
C    -1.001718   -0.778391    0.084609    0.000371    0.000436   -0.000038
N    -0.754728    0.578612   -0.023325    0.000732   -0.000018   -0.000022
C     0.489437    1.226278   -0.105125    0.004669   -0.004846    0.000255
O    -2.121379   -1.255957    0.147970   -0.000016   -0.000056    0.000001
O     0.544888    2.445398   -0.199422   -0.000427    0.001246   -0.000085
H     2.227146   -1.747036    0.075476    0.395369   -0.361702    0.017166
H     0.020614   -2.552189    0.190181   -0.002222    0.008771   -0.000588
H    -1.580237    1.175741   -0.048115   -0.000204    0.000193   -0.000015
H     2.630238    0.734097   -0.122298    1.769279    0.734228   -0.100517
