12
* (null), Energy   -1000.0000000
C     1.625816    0.316601   -0.065250    0.109874   -0.035854    0.000137
C     1.413215   -1.019528    0.041288    0.190484    0.147448   -0.016068
N     0.151412   -1.546563    0.113379   -0.214437    0.049591    0.001709
C    -1.001718   -0.778391    0.084609    0.110387   -0.294670    0.018861
N    -0.754728    0.578612   -0.023325    0.211732    0.181485   -0.018855
C     0.489437    1.226278   -0.105125   -0.510618   -0.013767    0.014124
O    -2.121379   -1.255957    0.147970   -0.022547   -0.016841    0.001979
O     0.544888    2.445398   -0.199422    0.042802   -0.020295    0.000543
H     2.227146   -1.747036    0.075476    0.343370    0.325073   -0.033578
H     0.020614   -2.552189    0.190181   -0.620299    0.100418    0.010055
H    -1.580237    1.175741   -0.048115    0.527461    0.612012   -0.062642
H     2.630238    0.734097   -0.122298    0.655621   -1.313573    0.081182
12
* Frequency(24) 1227.8827
C     1.638302    0.312527   -0.065235    0.109874   -0.035854    0.000137
C     1.434863   -1.002772    0.039462    0.190484    0.147448   -0.016068
N     0.127042   -1.540928    0.113573   -0.214437    0.049591    0.001709
C    -0.989173   -0.811878    0.086753    0.110387   -0.294670    0.018861
N    -0.730666    0.599237   -0.025467    0.211732    0.181485   -0.018855
C     0.431408    1.224714   -0.103520   -0.510618   -0.013767    0.014124
O    -2.123942   -1.257871    0.148195   -0.022547   -0.016841    0.001979
O     0.549752    2.443092   -0.199360    0.042802   -0.020295    0.000543
H     2.266168   -1.710093    0.071660    0.343370    0.325073   -0.033578
H    -0.049879   -2.540777    0.191324   -0.620299    0.100418    0.010055
H    -1.520294    1.245293   -0.055234    0.527461    0.612012   -0.062642
H     2.704745    0.584816   -0.113072    0.655621   -1.313573    0.081182
12
* Frequency(24) 1227.8827
C     1.649436    0.308894   -0.065221    0.109874   -0.035854    0.000137
C     1.454164   -0.987831    0.037834    0.190484    0.147448   -0.016068
N     0.105314   -1.535903    0.113746   -0.214437    0.049591    0.001709
C    -0.977987   -0.841737    0.088664    0.110387   -0.294670    0.018861
N    -0.709211    0.617627   -0.027378    0.211732    0.181485   -0.018855
C     0.379667    1.223319   -0.102089   -0.510618   -0.013767    0.014124
O    -2.126226   -1.259577    0.148396   -0.022547   -0.016841    0.001979
O     0.554089    2.441035   -0.199305    0.042802   -0.020295    0.000543
H     2.300962   -1.677154    0.068257    0.343370    0.325073   -0.033578
H    -0.112734   -2.530602    0.192342   -0.620299    0.100418    0.010055
H    -1.466847    1.307308   -0.061582    0.527461    0.612012   -0.062642
H     2.771179    0.451712   -0.104846    0.655621   -1.313573    0.081182
12
* Frequency(24) 1227.8827
C     1.658009    0.306096   -0.065210    0.109874   -0.035854    0.000137
C     1.469028   -0.976325    0.036580    0.190484    0.147448   -0.016068
N     0.088580   -1.532033    0.113880   -0.214437    0.049591    0.001709
C    -0.969373   -0.864731    0.090136    0.110387   -0.294670    0.018861
N    -0.692689    0.631789   -0.028849    0.211732    0.181485   -0.018855
C     0.339822    1.222244   -0.100986   -0.510618   -0.013767    0.014124
O    -2.127986   -1.260891    0.148550   -0.022547   -0.016841    0.001979
O     0.557429    2.439452   -0.199263    0.042802   -0.020295    0.000543
H     2.327756   -1.651787    0.065637    0.343370    0.325073   -0.033578
H    -0.161138   -2.522766    0.193127   -0.620299    0.100418    0.010055
H    -1.425687    1.355066   -0.066470    0.527461    0.612012   -0.062642
H     2.822340    0.349209   -0.098511    0.655621   -1.313573    0.081182
12
* Frequency(24) 1227.8827
C     1.663095    0.304436   -0.065203    0.109874   -0.035854    0.000137
C     1.477844   -0.969501    0.035836    0.190484    0.147448   -0.016068
N     0.078656   -1.529738    0.113959   -0.214437    0.049591    0.001709
C    -0.964264   -0.878369    0.091009    0.110387   -0.294670    0.018861
N    -0.682890    0.640188   -0.029722    0.211732    0.181485   -0.018855
C     0.316190    1.221607   -0.100333   -0.510618   -0.013767    0.014124
O    -2.129029   -1.261671    0.148642   -0.022547   -0.016841    0.001979
O     0.559410    2.438512   -0.199238    0.042802   -0.020295    0.000543
H     2.343648   -1.636742    0.064083    0.343370    0.325073   -0.033578
H    -0.189847   -2.518118    0.193592   -0.620299    0.100418    0.010055
H    -1.401275    1.383391   -0.069369    0.527461    0.612012   -0.062642
H     2.852683    0.288415   -0.094753    0.655621   -1.313573    0.081182
12
* Frequency(24) 1227.8827
C     1.664140    0.304095   -0.065202    0.109874   -0.035854    0.000137
C     1.479657   -0.968098    0.035683    0.190484    0.147448   -0.016068
N     0.076615   -1.529266    0.113975   -0.214437    0.049591    0.001709
C    -0.963214   -0.881173    0.091188    0.110387   -0.294670    0.018861
N    -0.680875    0.641915   -0.029901    0.211732    0.181485   -0.018855
C     0.311331    1.221476   -0.100198   -0.510618   -0.013767    0.014124
O    -2.129244   -1.261831    0.148660   -0.022547   -0.016841    0.001979
O     0.559817    2.438319   -0.199233    0.042802   -0.020295    0.000543
H     2.346915   -1.633650    0.063764    0.343370    0.325073   -0.033578
H    -0.195749   -2.517163    0.193688   -0.620299    0.100418    0.010055
H    -1.396257    1.389214   -0.069965    0.527461    0.612012   -0.062642
H     2.858921    0.275917   -0.093981    0.655621   -1.313573    0.081182
12
* Frequency(24) 1227.8827
C     1.661032    0.305109   -0.065206    0.109874   -0.035854    0.000137
C     1.474269   -0.972268    0.036138    0.190484    0.147448   -0.016068
N     0.082681   -1.530668    0.113927   -0.214437    0.049591    0.001709
C    -0.966336   -0.872838    0.090655    0.110387   -0.294670    0.018861
N    -0.686864    0.636782   -0.029368    0.211732    0.181485   -0.018855
C     0.325774    1.221866   -0.100598   -0.510618   -0.013767    0.014124
O    -2.128606   -1.261355    0.148604   -0.022547   -0.016841    0.001979
O     0.558607    2.438893   -0.199248    0.042802   -0.020295    0.000543
H     2.337203   -1.642844    0.064713    0.343370    0.325073   -0.033578
H    -0.178204   -2.520003    0.193404   -0.620299    0.100418    0.010055
H    -1.411175    1.371904   -0.068193    0.527461    0.612012   -0.062642
H     2.840378    0.313070   -0.096277    0.655621   -1.313573    0.081182
12
* Frequency(24) 1227.8827
C     1.654108    0.307369   -0.065215    0.109874   -0.035854    0.000137
C     1.462265   -0.981560    0.037150    0.190484    0.147448   -0.016068
N     0.096194   -1.533793    0.113819   -0.214437    0.049591    0.001709
C    -0.973293   -0.854269    0.089466    0.110387   -0.294670    0.018861
N    -0.700207    0.625345   -0.028180    0.211732    0.181485   -0.018855
C     0.357951    1.222733   -0.101488   -0.510618   -0.013767    0.014124
O    -2.127185   -1.260293    0.148480   -0.022547   -0.016841    0.001979
O     0.555909    2.440172   -0.199282    0.042802   -0.020295    0.000543
H     2.315565   -1.663329    0.066829    0.343370    0.325073   -0.033578
H    -0.139115   -2.526331    0.192770   -0.620299    0.100418    0.010055
H    -1.444415    1.333336   -0.064246    0.527461    0.612012   -0.062642
H     2.799062    0.395848   -0.101393    0.655621   -1.313573    0.081182
12
* Frequency(24) 1227.8827
C     1.644118    0.310629   -0.065227    0.109874   -0.035854    0.000137
C     1.444946   -0.994966    0.038611    0.190484    0.147448   -0.016068
N     0.115691   -1.538302    0.113664   -0.214437    0.049591    0.001709
C    -0.983329   -0.827477    0.087751    0.110387   -0.294670    0.018861
N    -0.719458    0.608844   -0.026465    0.211732    0.181485   -0.018855
C     0.404378    1.223985   -0.102772   -0.510618   -0.013767    0.014124
O    -2.125135   -1.258762    0.148300   -0.022547   -0.016841    0.001979
O     0.552018    2.442017   -0.199332    0.042802   -0.020295    0.000543
H     2.284345   -1.692885    0.069882    0.343370    0.325073   -0.033578
H    -0.082716   -2.535461    0.191856   -0.620299    0.100418    0.010055
H    -1.492372    1.277691   -0.058550    0.527461    0.612012   -0.062642
H     2.739452    0.515280   -0.108774    0.655621   -1.313573    0.081182
12
* Frequency(24) 1227.8827
C     1.632145    0.314536   -0.065242    0.109874   -0.035854    0.000137
C     1.424188   -1.011034    0.040362    0.190484    0.147448   -0.016068
N     0.139059   -1.543706    0.113477   -0.214437    0.049591    0.001709
C    -0.995358   -0.795366    0.085696    0.110387   -0.294670    0.018861
N    -0.742531    0.589067   -0.024411    0.211732    0.181485   -0.018855
C     0.460022    1.225485   -0.104311   -0.510618   -0.013767    0.014124
O    -2.122678   -1.256927    0.148084   -0.022547   -0.016841    0.001979
O     0.547354    2.444229   -0.199391    0.042802   -0.020295    0.000543
H     2.246927   -1.728309    0.073541    0.343370    0.325073   -0.033578
H    -0.015120   -2.546404    0.190760   -0.620299    0.100418    0.010055
H    -1.549851    1.210998   -0.051724    0.527461    0.612012   -0.062642
H     2.668007    0.658425   -0.117621    0.655621   -1.313573    0.081182
12
* Frequency(24) 1227.8827
C     1.619486    0.318667   -0.065258    0.109874   -0.035854    0.000137
C     1.402242   -1.028023    0.042214    0.190484    0.147448   -0.016068
N     0.163765   -1.549420    0.113281   -0.214437    0.049591    0.001709
C    -1.008077   -0.761415    0.083523    0.110387   -0.294670    0.018861
N    -0.766926    0.568157   -0.022238    0.211732    0.181485   -0.018855
C     0.518853    1.227071   -0.105939   -0.510618   -0.013767    0.014124
O    -2.120080   -1.254987    0.147856   -0.022547   -0.016841    0.001979
O     0.542422    2.446567   -0.199453    0.042802   -0.020295    0.000543
H     2.207365   -1.765763    0.077410    0.343370    0.325073   -0.033578
H     0.056349   -2.557974    0.189602   -0.620299    0.100418    0.010055
H    -1.610623    1.140485   -0.044507    0.527461    0.612012   -0.062642
H     2.592469    0.809770   -0.126974    0.655621   -1.313573    0.081182
12
* Frequency(24) 1227.8827
C     1.607513    0.322574   -0.065273    0.109874   -0.035854    0.000137
C     1.381484   -1.044091    0.043965    0.190484    0.147448   -0.016068
N     0.187133   -1.554824    0.113094   -0.214437    0.049591    0.001709
C    -1.020106   -0.729304    0.081467    0.110387   -0.294670    0.018861
N    -0.789999    0.548380   -0.020184    0.211732    0.181485   -0.018855
C     0.574497    1.228572   -0.107478   -0.510618   -0.013767    0.014124
O    -2.117623   -1.253151    0.147641   -0.022547   -0.016841    0.001979
O     0.537758    2.448779   -0.199512    0.042802   -0.020295    0.000543
H     2.169947   -1.801187    0.081069    0.343370    0.325073   -0.033578
H     0.123945   -2.568917    0.188506   -0.620299    0.100418    0.010055
H    -1.668103    1.073791   -0.037680    0.527461    0.612012   -0.062642
H     2.521023    0.952914   -0.135821    0.655621   -1.313573    0.081182
12
* Frequency(24) 1227.8827
C     1.597523    0.325834   -0.065286    0.109874   -0.035854    0.000137
C     1.364165   -1.057497    0.045426    0.190484    0.147448   -0.016068
N     0.206630   -1.559333    0.112939   -0.214437    0.049591    0.001709
C    -1.030143   -0.702512    0.079753    0.110387   -0.294670    0.018861
N    -0.809250    0.531879   -0.018469    0.211732    0.181485   -0.018855
C     0.620923    1.229824   -0.108762   -0.510618   -0.013767    0.014124
O    -2.115573   -1.251620    0.147461   -0.022547   -0.016841    0.001979
O     0.533866    2.450624   -0.199562    0.042802   -0.020295    0.000543
H     2.138727   -1.830744    0.084122    0.343370    0.325073   -0.033578
H     0.180343   -2.578047    0.187592   -0.620299    0.100418    0.010055
H    -1.716060    1.018146   -0.031985    0.527461    0.612012   -0.062642
H     2.461413    1.072347   -0.143202    0.655621   -1.313573    0.081182
12
* Frequency(24) 1227.8827
C     1.590599    0.328094   -0.065294    0.109874   -0.035854    0.000137
C     1.352161   -1.066789    0.046438    0.190484    0.147448   -0.016068
N     0.220144   -1.562458    0.112831   -0.214437    0.049591    0.001709
C    -1.037099   -0.683943    0.078564    0.110387   -0.294670    0.018861
N    -0.822593    0.520442   -0.017281    0.211732    0.181485   -0.018855
C     0.653101    1.230691   -0.109652   -0.510618   -0.013767    0.014124
O    -2.114153   -1.250559    0.147336   -0.022547   -0.016841    0.001979
O     0.531169    2.451903   -0.199596    0.042802   -0.020295    0.000543
H     2.117089   -1.851229    0.086238    0.343370    0.325073   -0.033578
H     0.219433   -2.584375    0.186958   -0.620299    0.100418    0.010055
H    -1.749299    0.979579   -0.028037    0.527461    0.612012   -0.062642
H     2.420098    1.155124   -0.148318    0.655621   -1.313573    0.081182
12
* Frequency(24) 1227.8827
C     1.587491    0.329108   -0.065298    0.109874   -0.035854    0.000137
C     1.346773   -1.070959    0.046893    0.190484    0.147448   -0.016068
N     0.226209   -1.563861    0.112783   -0.214437    0.049591    0.001709
C    -1.040221   -0.675609    0.078031    0.110387   -0.294670    0.018861
N    -0.828582    0.515309   -0.016748    0.211732    0.181485   -0.018855
C     0.667543    1.231081   -0.110051   -0.510618   -0.013767    0.014124
O    -2.113515   -1.250083    0.147280   -0.022547   -0.016841    0.001979
O     0.529958    2.452477   -0.199611    0.042802   -0.020295    0.000543
H     2.107377   -1.860423    0.087188    0.343370    0.325073   -0.033578
H     0.236977   -2.587215    0.186674   -0.620299    0.100418    0.010055
H    -1.764218    0.962269   -0.026266    0.527461    0.612012   -0.062642
H     2.401554    1.192277   -0.150614    0.655621   -1.313573    0.081182
12
* Frequency(24) 1227.8827
C     1.588536    0.328767   -0.065297    0.109874   -0.035854    0.000137
C     1.348586   -1.069556    0.046740    0.190484    0.147448   -0.016068
N     0.224168   -1.563389    0.112799   -0.214437    0.049591    0.001709
C    -1.039171   -0.678412    0.078210    0.110387   -0.294670    0.018861
N    -0.826567    0.517036   -0.016927    0.211732    0.181485   -0.018855
C     0.662685    1.230950   -0.109917   -0.510618   -0.013767    0.014124
O    -2.113729   -1.250243    0.147299   -0.022547   -0.016841    0.001979
O     0.530366    2.452284   -0.199606    0.042802   -0.020295    0.000543
H     2.110644   -1.857330    0.086868    0.343370    0.325073   -0.033578
H     0.231076   -2.586260    0.186769   -0.620299    0.100418    0.010055
H    -1.759200    0.968092   -0.026862    0.527461    0.612012   -0.062642
H     2.407792    1.179780   -0.149842    0.655621   -1.313573    0.081182
12
* Frequency(24) 1227.8827
C     1.593622    0.327107   -0.065290    0.109874   -0.035854    0.000137
C     1.357402   -1.062732    0.045996    0.190484    0.147448   -0.016068
N     0.214244   -1.561094    0.112878   -0.214437    0.049591    0.001709
C    -1.034062   -0.692050    0.079083    0.110387   -0.294670    0.018861
N    -0.816768    0.525435   -0.017800    0.211732    0.181485   -0.018855
C     0.639053    1.230312   -0.109263   -0.510618   -0.013767    0.014124
O    -2.114773   -1.251022    0.147390   -0.022547   -0.016841    0.001979
O     0.532347    2.451344   -0.199581    0.042802   -0.020295    0.000543
H     2.126536   -1.842285    0.085314    0.343370    0.325073   -0.033578
H     0.202367   -2.581612    0.187235   -0.620299    0.100418    0.010055
H    -1.734788    0.996417   -0.029761    0.527461    0.612012   -0.062642
H     2.438135    1.118985   -0.146085    0.655621   -1.313573    0.081182
12
* Frequency(24) 1227.8827
C     1.602195    0.324309   -0.065280    0.109874   -0.035854    0.000137
C     1.372266   -1.051226    0.044742    0.190484    0.147448   -0.016068
N     0.197511   -1.557224    0.113012   -0.214437    0.049591    0.001709
C    -1.025448   -0.715044    0.080555    0.110387   -0.294670    0.018861
N    -0.800245    0.539597   -0.019271    0.211732    0.181485   -0.018855
C     0.599207    1.229238   -0.108161   -0.510618   -0.013767    0.014124
O    -2.116532   -1.252336    0.147545   -0.022547   -0.016841    0.001979
O     0.535687    2.449761   -0.199539    0.042802   -0.020295    0.000543
H     2.153330   -1.816919    0.082694    0.343370    0.325073   -0.033578
H     0.153963   -2.573776    0.188019   -0.620299    0.100418    0.010055
H    -1.693628    1.044174   -0.034649    0.527461    0.612012   -0.062642
H     2.489296    1.016482   -0.139750    0.655621   -1.313573    0.081182
12
* Frequency(24) 1227.8827
C     1.613329    0.320676   -0.065266    0.109874   -0.035854    0.000137
C     1.391568   -1.036285    0.043114    0.190484    0.147448   -0.016068
N     0.175782   -1.552199    0.113185   -0.214437    0.049591    0.001709
C    -1.014263   -0.744903    0.082466    0.110387   -0.294670    0.018861
N    -0.778791    0.557987   -0.021182    0.211732    0.181485   -0.018855
C     0.547466    1.227843   -0.106730   -0.510618   -0.013767    0.014124
O    -2.118817   -1.254043    0.147745   -0.022547   -0.016841    0.001979
O     0.540024    2.447704   -0.199484    0.042802   -0.020295    0.000543
H     2.188124   -1.783979    0.079292    0.343370    0.325073   -0.033578
H     0.091108   -2.563601    0.189038   -0.620299    0.100418    0.010055
H    -1.640181    1.106189   -0.040997    0.527461    0.612012   -0.062642
H     2.555730    0.883378   -0.131523    0.655621   -1.313573    0.081182
12
* Frequency(24) 1227.8827
C     1.625816    0.316601   -0.065250    0.109874   -0.035854    0.000137
C     1.413215   -1.019528    0.041288    0.190484    0.147448   -0.016068
N     0.151412   -1.546563    0.113379   -0.214437    0.049591    0.001709
C    -1.001718   -0.778391    0.084609    0.110387   -0.294670    0.018861
N    -0.754728    0.578612   -0.023325    0.211732    0.181485   -0.018855
C     0.489437    1.226278   -0.105125   -0.510618   -0.013767    0.014124
O    -2.121379   -1.255957    0.147970   -0.022547   -0.016841    0.001979
O     0.544888    2.445398   -0.199422    0.042802   -0.020295    0.000543
H     2.227146   -1.747036    0.075476    0.343370    0.325073   -0.033578
H     0.020614   -2.552189    0.190181   -0.620299    0.100418    0.010055
H    -1.580237    1.175741   -0.048115    0.527461    0.612012   -0.062642
H     2.630238    0.734097   -0.122298    0.655621   -1.313573    0.081182
