12
* (null), Energy   -1000.0000000
C     1.625816    0.316601   -0.065250   -0.009758   -0.027313   -0.372392
C     1.413215   -1.019528    0.041288   -0.004027   -0.007557   -0.113104
N     0.151412   -1.546563    0.113379    0.001467    0.004688    0.072084
C    -1.001718   -0.778391    0.084609   -0.000770   -0.004285   -0.054608
N    -0.754728    0.578612   -0.023325   -0.002797   -0.008593   -0.112747
C     0.489437    1.226278   -0.105125    0.014266    0.042578    0.565302
O    -2.121379   -1.255957    0.147970    0.001183    0.001590    0.017747
O     0.544888    2.445398   -0.199422   -0.003854   -0.012954   -0.161788
H     2.227146   -1.747036    0.075476    0.019474    0.062690    0.822879
H     0.020614   -2.552189    0.190181   -0.003875   -0.010201   -0.131057
H    -1.580237    1.175741   -0.048115    0.006436    0.017506    0.210613
H     2.630238    0.734097   -0.122298    0.042305    0.123859    1.648567
12
* Frequency(18)  821.5625
C     1.624707    0.313497   -0.107571   -0.009758   -0.027313   -0.372392
C     1.412757   -1.020387    0.028434   -0.004027   -0.007557   -0.113104
N     0.151579   -1.546031    0.121571    0.001467    0.004688    0.072084
C    -1.001805   -0.778878    0.078403   -0.000770   -0.004285   -0.054608
N    -0.755046    0.577636   -0.036138   -0.002797   -0.008593   -0.112747
C     0.491059    1.231117   -0.040881    0.014266    0.042578    0.565302
O    -2.121245   -1.255776    0.149987    0.001183    0.001590    0.017747
O     0.544450    2.443926   -0.217808   -0.003854   -0.012954   -0.161788
H     2.229359   -1.739912    0.168991    0.019474    0.062690    0.822879
H     0.020174   -2.553348    0.175287   -0.003875   -0.010201   -0.131057
H    -1.579506    1.177731   -0.024180    0.006436    0.017506    0.210613
H     2.635045    0.748173    0.065053    0.042305    0.123859    1.648567
12
* Frequency(18)  821.5625
C     1.623718    0.310730   -0.145305   -0.009758   -0.027313   -0.372392
C     1.412349   -1.021153    0.016973   -0.004027   -0.007557   -0.113104
N     0.151727   -1.545556    0.128875    0.001467    0.004688    0.072084
C    -1.001883   -0.779312    0.072870   -0.000770   -0.004285   -0.054608
N    -0.755330    0.576765   -0.047562   -0.002797   -0.008593   -0.112747
C     0.492504    1.235432    0.016401    0.014266    0.042578    0.565302
O    -2.121125   -1.255615    0.151785    0.001183    0.001590    0.017747
O     0.544059    2.442613   -0.234202   -0.003854   -0.012954   -0.161788
H     2.231333   -1.733559    0.252373    0.019474    0.062690    0.822879
H     0.019781   -2.554382    0.162007   -0.003875   -0.010201   -0.131057
H    -1.578854    1.179505   -0.002839    0.006436    0.017506    0.210613
H     2.639332    0.760724    0.232102    0.042305    0.123859    1.648567
12
* Frequency(18)  821.5625
C     1.622956    0.308598   -0.174364   -0.009758   -0.027313   -0.372392
C     1.412035   -1.021743    0.008147   -0.004027   -0.007557   -0.113104
N     0.151842   -1.545190    0.134500    0.001467    0.004688    0.072084
C    -1.001943   -0.779646    0.068609   -0.000770   -0.004285   -0.054608
N    -0.755548    0.576094   -0.056360   -0.002797   -0.008593   -0.112747
C     0.493617    1.238754    0.060513    0.014266    0.042578    0.565302
O    -2.121033   -1.255491    0.153170    0.001183    0.001590    0.017747
O     0.543758    2.441602   -0.246827   -0.003854   -0.012954   -0.161788
H     2.232852   -1.728668    0.316586    0.019474    0.062690    0.822879
H     0.019479   -2.555178    0.151780   -0.003875   -0.010201   -0.131057
H    -1.578352    1.180871    0.013596    0.006436    0.017506    0.210613
H     2.642633    0.770389    0.360746    0.042305    0.123859    1.648567
12
* Frequency(18)  821.5625
C     1.622505    0.307334   -0.191599   -0.009758   -0.027313   -0.372392
C     1.411849   -1.022093    0.002913   -0.004027   -0.007557   -0.113104
N     0.151910   -1.544973    0.137836    0.001467    0.004688    0.072084
C    -1.001979   -0.779845    0.066081   -0.000770   -0.004285   -0.054608
N    -0.755677    0.575697   -0.061578   -0.002797   -0.008593   -0.112747
C     0.494278    1.240725    0.086677    0.014266    0.042578    0.565302
O    -2.120978   -1.255417    0.153992    0.001183    0.001590    0.017747
O     0.543580    2.441003   -0.254315   -0.003854   -0.012954   -0.161788
H     2.233753   -1.725766    0.354670    0.019474    0.062690    0.822879
H     0.019300   -2.555650    0.145714   -0.003875   -0.010201   -0.131057
H    -1.578054    1.181681    0.023344    0.006436    0.017506    0.210613
H     2.644591    0.776121    0.437045    0.042305    0.123859    1.648567
12
* Frequency(18)  821.5625
C     1.622412    0.307075   -0.195142   -0.009758   -0.027313   -0.372392
C     1.411810   -1.022164    0.001837   -0.004027   -0.007557   -0.113104
N     0.151924   -1.544928    0.138522    0.001467    0.004688    0.072084
C    -1.001986   -0.779885    0.065562   -0.000770   -0.004285   -0.054608
N    -0.755704    0.575615   -0.062651   -0.002797   -0.008593   -0.112747
C     0.494413    1.241130    0.092055    0.014266    0.042578    0.565302
O    -2.120967   -1.255402    0.154161    0.001183    0.001590    0.017747
O     0.543543    2.440880   -0.255854   -0.003854   -0.012954   -0.161788
H     2.233939   -1.725170    0.362499    0.019474    0.062690    0.822879
H     0.019263   -2.555747    0.144468   -0.003875   -0.010201   -0.131057
H    -1.577993    1.181847    0.025347    0.006436    0.017506    0.210613
H     2.644994    0.777300    0.452730    0.042305    0.123859    1.648567
12
* Frequency(18)  821.5625
C     1.622688    0.307847   -0.184609   -0.009758   -0.027313   -0.372392
C     1.411924   -1.021951    0.005036   -0.004027   -0.007557   -0.113104
N     0.151882   -1.545061    0.136483    0.001467    0.004688    0.072084
C    -1.001965   -0.779764    0.067106   -0.000770   -0.004285   -0.054608
N    -0.755625    0.575858   -0.059462   -0.002797   -0.008593   -0.112747
C     0.494010    1.239926    0.076066    0.014266    0.042578    0.565302
O    -2.121000   -1.255447    0.153659    0.001183    0.001590    0.017747
O     0.543652    2.441246   -0.251278   -0.003854   -0.012954   -0.161788
H     2.233388   -1.726943    0.339225    0.019474    0.062690    0.822879
H     0.019372   -2.555459    0.148174   -0.003875   -0.010201   -0.131057
H    -1.578175    1.181352    0.019390    0.006436    0.017506    0.210613
H     2.643797    0.773796    0.406102    0.042305    0.123859    1.648567
12
* Frequency(18)  821.5625
C     1.623303    0.309568   -0.161142   -0.009758   -0.027313   -0.372392
C     1.412178   -1.021474    0.012163   -0.004027   -0.007557   -0.113104
N     0.151790   -1.545356    0.131941    0.001467    0.004688    0.072084
C    -1.001916   -0.779494    0.070548   -0.000770   -0.004285   -0.054608
N    -0.755449    0.576399   -0.052357   -0.002797   -0.008593   -0.112747
C     0.493111    1.237242    0.040442    0.014266    0.042578    0.565302
O    -2.121075   -1.255547    0.152540    0.001183    0.001590    0.017747
O     0.543895    2.442062   -0.241083   -0.003854   -0.012954   -0.161788
H     2.232161   -1.730893    0.287370    0.019474    0.062690    0.822879
H     0.019617   -2.554816    0.156433   -0.003875   -0.010201   -0.131057
H    -1.578580    1.180249    0.006118    0.006436    0.017506    0.210613
H     2.641131    0.765991    0.302214    0.042305    0.123859    1.648567
12
* Frequency(18)  821.5625
C     1.624190    0.312052   -0.127284   -0.009758   -0.027313   -0.372392
C     1.412544   -1.020787    0.022447   -0.004027   -0.007557   -0.113104
N     0.151656   -1.545782    0.125387    0.001467    0.004688    0.072084
C    -1.001846   -0.779105    0.075513   -0.000770   -0.004285   -0.054608
N    -0.755194    0.577181   -0.042106   -0.002797   -0.008593   -0.112747
C     0.491814    1.233371   -0.010956    0.014266    0.042578    0.565302
O    -2.121182   -1.255692    0.150927    0.001183    0.001590    0.017747
O     0.544246    2.443240   -0.226373   -0.003854   -0.012954   -0.161788
H     2.230390   -1.736593    0.212552    0.019474    0.062690    0.822879
H     0.019969   -2.553888    0.168349   -0.003875   -0.010201   -0.131057
H    -1.579165    1.178657   -0.013031    0.006436    0.017506    0.210613
H     2.637285    0.754730    0.152323    0.042305    0.123859    1.648567
12
* Frequency(18)  821.5625
C     1.625253    0.315028   -0.086703   -0.009758   -0.027313   -0.372392
C     1.412983   -1.019964    0.034772   -0.004027   -0.007557   -0.113104
N     0.151497   -1.546293    0.117532    0.001467    0.004688    0.072084
C    -1.001762   -0.778638    0.081463   -0.000770   -0.004285   -0.054608
N    -0.754889    0.578117   -0.029820   -0.002797   -0.008593   -0.112747
C     0.490259    1.228731   -0.072559    0.014266    0.042578    0.565302
O    -2.121311   -1.255865    0.148993    0.001183    0.001590    0.017747
O     0.544666    2.444652   -0.208742   -0.003854   -0.012954   -0.161788
H     2.228268   -1.743425    0.122880    0.019474    0.062690    0.822879
H     0.020391   -2.552777    0.182631   -0.003875   -0.010201   -0.131057
H    -1.579867    1.176750   -0.035982    0.006436    0.017506    0.210613
H     2.632675    0.741232   -0.027327    0.042305    0.123859    1.648567
12
* Frequency(18)  821.5625
C     1.626378    0.318175   -0.043797   -0.009758   -0.027313   -0.372392
C     1.413447   -1.019093    0.047804   -0.004027   -0.007557   -0.113104
N     0.151328   -1.546833    0.109226    0.001467    0.004688    0.072084
C    -1.001673   -0.778144    0.087755   -0.000770   -0.004285   -0.054608
N    -0.754567    0.579107   -0.016829   -0.002797   -0.008593   -0.112747
C     0.488615    1.223826   -0.137691    0.014266    0.042578    0.565302
O    -2.121448   -1.256048    0.146948    0.001183    0.001590    0.017747
O     0.545110    2.446144   -0.190102   -0.003854   -0.012954   -0.161788
H     2.226024   -1.750648    0.028071    0.019474    0.062690    0.822879
H     0.020838   -2.551601    0.197731   -0.003875   -0.010201   -0.131057
H    -1.580608    1.174733   -0.060248    0.006436    0.017506    0.210613
H     2.627800    0.726962   -0.217268    0.042305    0.123859    1.648567
12
* Frequency(18)  821.5625
C     1.627441    0.321151   -0.003217   -0.009758   -0.027313   -0.372392
C     1.413886   -1.018269    0.060129   -0.004027   -0.007557   -0.113104
N     0.151168   -1.547344    0.101371    0.001467    0.004688    0.072084
C    -1.001589   -0.777677    0.093706   -0.000770   -0.004285   -0.054608
N    -0.754262    0.580044   -0.004543   -0.002797   -0.008593   -0.112747
C     0.487061    1.219186   -0.199294    0.014266    0.042578    0.565302
O    -2.121576   -1.256222    0.145014    0.001183    0.001590    0.017747
O     0.545530    2.447556   -0.172471   -0.003854   -0.012954   -0.161788
H     2.223902   -1.757479   -0.061601    0.019474    0.062690    0.822879
H     0.021260   -2.550490    0.212013   -0.003875   -0.010201   -0.131057
H    -1.581310    1.172825   -0.083200    0.006436    0.017506    0.210613
H     2.623190    0.713464   -0.396918    0.042305    0.123859    1.648567
12
* Frequency(18)  821.5625
C     1.628328    0.323635    0.030642   -0.009758   -0.027313   -0.372392
C     1.414252   -1.017582    0.070413   -0.004027   -0.007557   -0.113104
N     0.151034   -1.547770    0.094817    0.001467    0.004688    0.072084
C    -1.001519   -0.777287    0.098671   -0.000770   -0.004285   -0.054608
N    -0.754008    0.580825    0.005708   -0.002797   -0.008593   -0.112747
C     0.485764    1.215314   -0.250692    0.014266    0.042578    0.565302
O    -2.121684   -1.256366    0.143400    0.001183    0.001590    0.017747
O     0.545880    2.448734   -0.157761   -0.003854   -0.012954   -0.161788
H     2.222132   -1.763179   -0.136418    0.019474    0.062690    0.822879
H     0.021612   -2.549562    0.223929   -0.003875   -0.010201   -0.131057
H    -1.581895    1.171234   -0.102349    0.006436    0.017506    0.210613
H     2.619344    0.702203   -0.546809    0.042305    0.123859    1.648567
12
* Frequency(18)  821.5625
C     1.628943    0.325356    0.054109   -0.009758   -0.027313   -0.372392
C     1.414506   -1.017106    0.077540   -0.004027   -0.007557   -0.113104
N     0.150942   -1.548066    0.090274    0.001467    0.004688    0.072084
C    -1.001471   -0.777017    0.102112   -0.000770   -0.004285   -0.054608
N    -0.753832    0.581366    0.012813   -0.002797   -0.008593   -0.112747
C     0.484865    1.212631   -0.286316    0.014266    0.042578    0.565302
O    -2.121758   -1.256466    0.142282    0.001183    0.001590    0.017747
O     0.546123    2.449550   -0.147566   -0.003854   -0.012954   -0.161788
H     2.220905   -1.767130   -0.188274    0.019474    0.062690    0.822879
H     0.021856   -2.548920    0.232187   -0.003875   -0.010201   -0.131057
H    -1.582300    1.170130   -0.115621    0.006436    0.017506    0.210613
H     2.616678    0.694398   -0.650697    0.042305    0.123859    1.648567
12
* Frequency(18)  821.5625
C     1.629219    0.326128    0.064642   -0.009758   -0.027313   -0.372392
C     1.414620   -1.016892    0.080739   -0.004027   -0.007557   -0.113104
N     0.150900   -1.548198    0.088236    0.001467    0.004688    0.072084
C    -1.001449   -0.776896    0.103657   -0.000770   -0.004285   -0.054608
N    -0.753753    0.581609    0.016002   -0.002797   -0.008593   -0.112747
C     0.484461    1.211427   -0.302305    0.014266    0.042578    0.565302
O    -2.121792   -1.256511    0.141780    0.001183    0.001590    0.017747
O     0.546232    2.449916   -0.142990   -0.003854   -0.012954   -0.161788
H     2.220354   -1.768903   -0.211548    0.019474    0.062690    0.822879
H     0.021966   -2.548631    0.235894   -0.003875   -0.010201   -0.131057
H    -1.582482    1.169635   -0.121578    0.006436    0.017506    0.210613
H     2.615481    0.690895   -0.697325    0.042305    0.123859    1.648567
12
* Frequency(18)  821.5625
C     1.629126    0.325869    0.061099   -0.009758   -0.027313   -0.372392
C     1.414581   -1.016964    0.079663   -0.004027   -0.007557   -0.113104
N     0.150914   -1.548154    0.088921    0.001467    0.004688    0.072084
C    -1.001456   -0.776937    0.103137   -0.000770   -0.004285   -0.054608
N    -0.753779    0.581528    0.014929   -0.002797   -0.008593   -0.112747
C     0.484597    1.211832   -0.296926    0.014266    0.042578    0.565302
O    -2.121781   -1.256496    0.141949    0.001183    0.001590    0.017747
O     0.546196    2.449793   -0.144529   -0.003854   -0.012954   -0.161788
H     2.220539   -1.768306   -0.203719    0.019474    0.062690    0.822879
H     0.021929   -2.548728    0.234647   -0.003875   -0.010201   -0.131057
H    -1.582421    1.169802   -0.119574    0.006436    0.017506    0.210613
H     2.615884    0.692073   -0.681640    0.042305    0.123859    1.648567
12
* Frequency(18)  821.5625
C     1.628675    0.324604    0.043864   -0.009758   -0.027313   -0.372392
C     1.414395   -1.017314    0.074429   -0.004027   -0.007557   -0.113104
N     0.150982   -1.547937    0.092258    0.001467    0.004688    0.072084
C    -1.001492   -0.777135    0.100610   -0.000770   -0.004285   -0.054608
N    -0.753909    0.581130    0.009711   -0.002797   -0.008593   -0.112747
C     0.485257    1.213803   -0.270763    0.014266    0.042578    0.565302
O    -2.121726   -1.256423    0.142770    0.001183    0.001590    0.017747
O     0.546017    2.449194   -0.152017   -0.003854   -0.012954   -0.161788
H     2.221440   -1.765405   -0.165635    0.019474    0.062690    0.822879
H     0.021750   -2.549200    0.228582   -0.003875   -0.010201   -0.131057
H    -1.582123    1.170612   -0.109827    0.006436    0.017506    0.210613
H     2.617842    0.697805   -0.605341    0.042305    0.123859    1.648567
12
* Frequency(18)  821.5625
C     1.627913    0.322473    0.014805   -0.009758   -0.027313   -0.372392
C     1.414081   -1.017904    0.065603   -0.004027   -0.007557   -0.113104
N     0.151097   -1.547571    0.097883    0.001467    0.004688    0.072084
C    -1.001552   -0.777470    0.096349   -0.000770   -0.004285   -0.054608
N    -0.754127    0.580459    0.000913   -0.002797   -0.008593   -0.112747
C     0.486370    1.217125   -0.226650    0.014266    0.042578    0.565302
O    -2.121634   -1.256299    0.144155    0.001183    0.001590    0.017747
O     0.545716    2.448183   -0.164642   -0.003854   -0.012954   -0.161788
H     2.222960   -1.760513   -0.101422    0.019474    0.062690    0.822879
H     0.021447   -2.549996    0.218355   -0.003875   -0.010201   -0.131057
H    -1.581621    1.171978   -0.093392    0.006436    0.017506    0.210613
H     2.621143    0.707471   -0.476697    0.042305    0.123859    1.648567
12
* Frequency(18)  821.5625
C     1.626924    0.319705   -0.022930   -0.009758   -0.027313   -0.372392
C     1.413673   -1.018670    0.054142   -0.004027   -0.007557   -0.113104
N     0.151245   -1.547096    0.105187    0.001467    0.004688    0.072084
C    -1.001630   -0.777904    0.090815   -0.000770   -0.004285   -0.054608
N    -0.754410    0.579589   -0.010511   -0.002797   -0.008593   -0.112747
C     0.487816    1.221440   -0.169369    0.014266    0.042578    0.565302
O    -2.121514   -1.256137    0.145953    0.001183    0.001590    0.017747
O     0.545326    2.446870   -0.181036   -0.003854   -0.012954   -0.161788
H     2.224933   -1.754161   -0.018040    0.019474    0.062690    0.822879
H     0.021055   -2.551030    0.205075   -0.003875   -0.010201   -0.131057
H    -1.580969    1.173752   -0.072050    0.006436    0.017506    0.210613
H     2.625430    0.720021   -0.309649    0.042305    0.123859    1.648567
12
* Frequency(18)  821.5625
C     1.625816    0.316601   -0.065250   -0.009758   -0.027313   -0.372392
C     1.413215   -1.019528    0.041288   -0.004027   -0.007557   -0.113104
N     0.151412   -1.546563    0.113379    0.001467    0.004688    0.072084
C    -1.001718   -0.778391    0.084609   -0.000770   -0.004285   -0.054608
N    -0.754728    0.578612   -0.023325   -0.002797   -0.008593   -0.112747
C     0.489437    1.226278   -0.105125    0.014266    0.042578    0.565302
O    -2.121379   -1.255957    0.147970    0.001183    0.001590    0.017747
O     0.544888    2.445398   -0.199422   -0.003854   -0.012954   -0.161788
H     2.227146   -1.747036    0.075476    0.019474    0.062690    0.822879
H     0.020614   -2.552189    0.190181   -0.003875   -0.010201   -0.131057
H    -1.580237    1.175741   -0.048115    0.006436    0.017506    0.210613
H     2.630238    0.734097   -0.122298    0.042305    0.123859    1.648567
