12
* (null), Energy   -1000.0000000
C     1.321514    0.518496   -0.072777    0.155720    0.072547   -0.009415
C     1.109175   -0.817930    0.032797    0.035473   -0.045401    0.002530
N    -0.152373   -1.344381    0.103578   -0.002521   -0.000371    0.000091
C    -1.303319   -0.575774    0.076278   -0.000471   -0.000398    0.000043
N    -1.058010    0.780216   -0.032013   -0.000709    0.000015    0.000020
C     0.185580    1.426809   -0.112240   -0.004701    0.004908   -0.000251
O    -2.424404   -1.053547    0.141169    0.000059    0.000065   -0.000007
O     0.240353    2.647240   -0.204710    0.000457   -0.001280    0.000088
H     1.922616   -1.545424    0.067591   -0.423522    0.386294   -0.018575
H    -0.283402   -2.349496    0.186263    0.002387   -0.008530    0.000647
H    -1.883441    1.377385   -0.056304    0.000372   -0.000295    0.000006
H     2.325711    0.936406   -0.129663   -1.759129   -0.730438    0.099629
12
* Frequency(33) 3243.1544
C     1.339211    0.526741   -0.073847    0.155720    0.072547   -0.009415
C     1.113207   -0.823090    0.033085    0.035473   -0.045401    0.002530
N    -0.152660   -1.344423    0.103589   -0.002521   -0.000371    0.000091
C    -1.303373   -0.575819    0.076283   -0.000471   -0.000398    0.000043
N    -1.058091    0.780218   -0.032010   -0.000709    0.000015    0.000020
C     0.185046    1.427366   -0.112268   -0.004701    0.004908   -0.000251
O    -2.424398   -1.053539    0.141168    0.000059    0.000065   -0.000007
O     0.240405    2.647094   -0.204700    0.000457   -0.001280    0.000088
H     1.874485   -1.501524    0.065480   -0.423522    0.386294   -0.018575
H    -0.283130   -2.350466    0.186337    0.002387   -0.008530    0.000647
H    -1.883398    1.377352   -0.056304    0.000372   -0.000295    0.000006
H     2.125795    0.853396   -0.118341   -1.759129   -0.730438    0.099629
12
* Frequency(33) 3243.1544
C     1.354990    0.534092   -0.074801    0.155720    0.072547   -0.009415
C     1.116801   -0.827690    0.033341    0.035473   -0.045401    0.002530
N    -0.152915   -1.344461    0.103598   -0.002521   -0.000371    0.000091
C    -1.303420   -0.575860    0.076287   -0.000471   -0.000398    0.000043
N    -1.058163    0.780220   -0.032008   -0.000709    0.000015    0.000020
C     0.184569    1.427864   -0.112294   -0.004701    0.004908   -0.000251
O    -2.424392   -1.053533    0.141167    0.000059    0.000065   -0.000007
O     0.240452    2.646965   -0.204691    0.000457   -0.001280    0.000088
H     1.831570   -1.462381    0.063598   -0.423522    0.386294   -0.018575
H    -0.282888   -2.351330    0.186402    0.002387   -0.008530    0.000647
H    -1.883361    1.377322   -0.056303    0.000372   -0.000295    0.000006
H     1.947543    0.779381   -0.108245   -1.759129   -0.730438    0.099629
12
* Frequency(33) 3243.1544
C     1.367141    0.539753   -0.075535    0.155720    0.072547   -0.009415
C     1.119569   -0.831233    0.033539    0.035473   -0.045401    0.002530
N    -0.153112   -1.344490    0.103605   -0.002521   -0.000371    0.000091
C    -1.303457   -0.575891    0.076291   -0.000471   -0.000398    0.000043
N    -1.058218    0.780221   -0.032007   -0.000709    0.000015    0.000020
C     0.184202    1.428247   -0.112313   -0.004701    0.004908   -0.000251
O    -2.424387   -1.053528    0.141167    0.000059    0.000065   -0.000007
O     0.240487    2.646865   -0.204684    0.000457   -0.001280    0.000088
H     1.798521   -1.432237    0.062148   -0.423522    0.386294   -0.018575
H    -0.282702   -2.351996    0.186453    0.002387   -0.008530    0.000647
H    -1.883332    1.377299   -0.056303    0.000372   -0.000295    0.000006
H     1.810272    0.722382   -0.100471   -1.759129   -0.730438    0.099629
12
* Frequency(33) 3243.1544
C     1.374348    0.543111   -0.075971    0.155720    0.072547   -0.009415
C     1.121211   -0.833334    0.033656    0.035473   -0.045401    0.002530
N    -0.153229   -1.344507    0.103609   -0.002521   -0.000371    0.000091
C    -1.303479   -0.575909    0.076293   -0.000471   -0.000398    0.000043
N    -1.058251    0.780221   -0.032006   -0.000709    0.000015    0.000020
C     0.183985    1.428474   -0.112325   -0.004701    0.004908   -0.000251
O    -2.424384   -1.053525    0.141166    0.000059    0.000065   -0.000007
O     0.240509    2.646806   -0.204680    0.000457   -0.001280    0.000088
H     1.778919   -1.414358    0.061289   -0.423522    0.386294   -0.018575
H    -0.282592   -2.352391    0.186483    0.002387   -0.008530    0.000647
H    -1.883315    1.377285   -0.056303    0.000372   -0.000295    0.000006
H     1.728856    0.688576   -0.095860   -1.759129   -0.730438    0.099629
12
* Frequency(33) 3243.1544
C     1.375830    0.543801   -0.076061    0.155720    0.072547   -0.009415
C     1.121548   -0.833766    0.033680    0.035473   -0.045401    0.002530
N    -0.153253   -1.344511    0.103610   -0.002521   -0.000371    0.000091
C    -1.303483   -0.575913    0.076293   -0.000471   -0.000398    0.000043
N    -1.058257    0.780222   -0.032006   -0.000709    0.000015    0.000020
C     0.183940    1.428520   -0.112327   -0.004701    0.004908   -0.000251
O    -2.424384   -1.053524    0.141166    0.000059    0.000065   -0.000007
O     0.240513    2.646794   -0.204680    0.000457   -0.001280    0.000088
H     1.774890   -1.410683    0.061112   -0.423522    0.386294   -0.018575
H    -0.282569   -2.352472    0.186489    0.002387   -0.008530    0.000647
H    -1.883311    1.377282   -0.056302    0.000372   -0.000295    0.000006
H     1.712119    0.681626   -0.094912   -1.759129   -0.730438    0.099629
12
* Frequency(33) 3243.1544
C     1.371425    0.541749   -0.075794    0.155720    0.072547   -0.009415
C     1.120545   -0.832482    0.033608    0.035473   -0.045401    0.002530
N    -0.153181   -1.344500    0.103607   -0.002521   -0.000371    0.000091
C    -1.303470   -0.575902    0.076292   -0.000471   -0.000398    0.000043
N    -1.058237    0.780221   -0.032006   -0.000709    0.000015    0.000020
C     0.184073    1.428382   -0.112320   -0.004701    0.004908   -0.000251
O    -2.424385   -1.053526    0.141166    0.000059    0.000065   -0.000007
O     0.240500    2.646830   -0.204682    0.000457   -0.001280    0.000088
H     1.786869   -1.421609    0.061637   -0.423522    0.386294   -0.018575
H    -0.282637   -2.352231    0.186471    0.002387   -0.008530    0.000647
H    -1.883322    1.377291   -0.056303    0.000372   -0.000295    0.000006
H     1.761874    0.702286   -0.097730   -1.759129   -0.730438    0.099629
12
* Frequency(33) 3243.1544
C     1.361612    0.537177   -0.075201    0.155720    0.072547   -0.009415
C     1.118310   -0.829621    0.033449    0.035473   -0.045401    0.002530
N    -0.153022   -1.344477    0.103602   -0.002521   -0.000371    0.000091
C    -1.303440   -0.575877    0.076289   -0.000471   -0.000398    0.000043
N    -1.058193    0.780220   -0.032008   -0.000709    0.000015    0.000020
C     0.184369    1.428072   -0.112304   -0.004701    0.004908   -0.000251
O    -2.424389   -1.053530    0.141167    0.000059    0.000065   -0.000007
O     0.240471    2.646910   -0.204688    0.000457   -0.001280    0.000088
H     1.813558   -1.445952    0.062808   -0.423522    0.386294   -0.018575
H    -0.282787   -2.351693    0.186430    0.002387   -0.008530    0.000647
H    -1.883345    1.377309   -0.056303    0.000372   -0.000295    0.000006
H     1.872729    0.748316   -0.104008   -1.759129   -0.730438    0.099629
12
* Frequency(33) 3243.1544
C     1.347454    0.530581   -0.074345    0.155720    0.072547   -0.009415
C     1.115084   -0.825493    0.033219    0.035473   -0.045401    0.002530
N    -0.152793   -1.344443    0.103593   -0.002521   -0.000371    0.000091
C    -1.303397   -0.575840    0.076285   -0.000471   -0.000398    0.000043
N    -1.058128    0.780219   -0.032009   -0.000709    0.000015    0.000020
C     0.184797    1.427626   -0.112281   -0.004701    0.004908   -0.000251
O    -2.424395   -1.053536    0.141168    0.000059    0.000065   -0.000007
O     0.240430    2.647027   -0.204696    0.000457   -0.001280    0.000088
H     1.852065   -1.481075    0.064497   -0.423522    0.386294   -0.018575
H    -0.283004   -2.350917    0.186371    0.002387   -0.008530    0.000647
H    -1.883379    1.377336   -0.056303    0.000372   -0.000295    0.000006
H     2.032672    0.814729   -0.113067   -1.759129   -0.730438    0.099629
12
* Frequency(33) 3243.1544
C     1.330485    0.522676   -0.073319    0.155720    0.072547   -0.009415
C     1.111219   -0.820546    0.032943    0.035473   -0.045401    0.002530
N    -0.152519   -1.344403    0.103584   -0.002521   -0.000371    0.000091
C    -1.303346   -0.575797    0.076281   -0.000471   -0.000398    0.000043
N    -1.058051    0.780217   -0.032011   -0.000709    0.000015    0.000020
C     0.185309    1.427091   -0.112254   -0.004701    0.004908   -0.000251
O    -2.424401   -1.053543    0.141168    0.000059    0.000065   -0.000007
O     0.240380    2.647166   -0.204705    0.000457   -0.001280    0.000088
H     1.898218   -1.523170    0.066521   -0.423522    0.386294   -0.018575
H    -0.283264   -2.349988    0.186301    0.002387   -0.008530    0.000647
H    -1.883419    1.377368   -0.056304    0.000372   -0.000295    0.000006
H     2.224371    0.894327   -0.123924   -1.759129   -0.730438    0.099629
12
* Frequency(33) 3243.1544
C     1.312543    0.514317   -0.072234    0.155720    0.072547   -0.009415
C     1.107132   -0.815315    0.032651    0.035473   -0.045401    0.002530
N    -0.152228   -1.344360    0.103573   -0.002521   -0.000371    0.000091
C    -1.303292   -0.575751    0.076276   -0.000471   -0.000398    0.000043
N    -1.057969    0.780215   -0.032014   -0.000709    0.000015    0.000020
C     0.185851    1.426526   -0.112225   -0.004701    0.004908   -0.000251
O    -2.424408   -1.053550    0.141169    0.000059    0.000065   -0.000007
O     0.240327    2.647314   -0.204715    0.000457   -0.001280    0.000088
H     1.947014   -1.567678    0.068661   -0.423522    0.386294   -0.018575
H    -0.283539   -2.349005    0.186226    0.002387   -0.008530    0.000647
H    -1.883462    1.377402   -0.056305    0.000372   -0.000295    0.000006
H     2.427051    0.978485   -0.135403   -1.759129   -0.730438    0.099629
12
* Frequency(33) 3243.1544
C     1.295574    0.506411   -0.071208    0.155720    0.072547   -0.009415
C     1.103266   -0.810367    0.032376    0.035473   -0.045401    0.002530
N    -0.151954   -1.344319    0.103563   -0.002521   -0.000371    0.000091
C    -1.303241   -0.575708    0.076271   -0.000471   -0.000398    0.000043
N    -1.057892    0.780214   -0.032016   -0.000709    0.000015    0.000020
C     0.186363    1.425991   -0.112198   -0.004701    0.004908   -0.000251
O    -2.424414   -1.053557    0.141170    0.000059    0.000065   -0.000007
O     0.240277    2.647453   -0.204725    0.000457   -0.001280    0.000088
H     1.993167   -1.609773    0.070685   -0.423522    0.386294   -0.018575
H    -0.283799   -2.348075    0.186156    0.002387   -0.008530    0.000647
H    -1.883503    1.377434   -0.056305    0.000372   -0.000295    0.000006
H     2.618749    1.058084   -0.146260   -1.759129   -0.730438    0.099629
12
* Frequency(33) 3243.1544
C     1.281415    0.499815   -0.070352    0.155720    0.072547   -0.009415
C     1.100041   -0.806239    0.032146    0.035473   -0.045401    0.002530
N    -0.151724   -1.344286    0.103555   -0.002521   -0.000371    0.000091
C    -1.303198   -0.575671    0.076267   -0.000471   -0.000398    0.000043
N    -1.057828    0.780212   -0.032018   -0.000709    0.000015    0.000020
C     0.186790    1.425545   -0.112175   -0.004701    0.004908   -0.000251
O    -2.424420   -1.053563    0.141171    0.000059    0.000065   -0.000007
O     0.240236    2.647569   -0.204733    0.000457   -0.001280    0.000088
H     2.031675   -1.644896    0.072374   -0.423522    0.386294   -0.018575
H    -0.284016   -2.347300    0.186097    0.002387   -0.008530    0.000647
H    -1.883536    1.377461   -0.056306    0.000372   -0.000295    0.000006
H     2.778692    1.124497   -0.155318   -1.759129   -0.730438    0.099629
12
* Frequency(33) 3243.1544
C     1.271602    0.495243   -0.069759    0.155720    0.072547   -0.009415
C     1.097806   -0.803378    0.031986    0.035473   -0.045401    0.002530
N    -0.151565   -1.344262    0.103549   -0.002521   -0.000371    0.000091
C    -1.303168   -0.575646    0.076265   -0.000471   -0.000398    0.000043
N    -1.057783    0.780212   -0.032019   -0.000709    0.000015    0.000020
C     0.187087    1.425235   -0.112159   -0.004701    0.004908   -0.000251
O    -2.424423   -1.053567    0.141171    0.000059    0.000065   -0.000007
O     0.240207    2.647650   -0.204738    0.000457   -0.001280    0.000088
H     2.058364   -1.669239    0.073545   -0.423522    0.386294   -0.018575
H    -0.284166   -2.346762    0.186056    0.002387   -0.008530    0.000647
H    -1.883560    1.377480   -0.056306    0.000372   -0.000295    0.000006
H     2.889548    1.170527   -0.161596   -1.759129   -0.730438    0.099629
12
* Frequency(33) 3243.1544
C     1.267198    0.493191   -0.069493    0.155720    0.072547   -0.009415
C     1.096802   -0.802094    0.031915    0.035473   -0.045401    0.002530
N    -0.151494   -1.344252    0.103547   -0.002521   -0.000371    0.000091
C    -1.303155   -0.575635    0.076263   -0.000471   -0.000398    0.000043
N    -1.057763    0.780211   -0.032020   -0.000709    0.000015    0.000020
C     0.187219    1.425097   -0.112152   -0.004701    0.004908   -0.000251
O    -2.424425   -1.053569    0.141171    0.000059    0.000065   -0.000007
O     0.240194    2.647686   -0.204741    0.000457   -0.001280    0.000088
H     2.070343   -1.680165    0.074070   -0.423522    0.386294   -0.018575
H    -0.284234   -2.346521    0.186038    0.002387   -0.008530    0.000647
H    -1.883570    1.377488   -0.056306    0.000372   -0.000295    0.000006
H     2.939303    1.191186   -0.164414   -1.759129   -0.730438    0.099629
12
* Frequency(33) 3243.1544
C     1.268680    0.493882   -0.069582    0.155720    0.072547   -0.009415
C     1.097140   -0.802526    0.031939    0.035473   -0.045401    0.002530
N    -0.151518   -1.344255    0.103548   -0.002521   -0.000371    0.000091
C    -1.303159   -0.575639    0.076264   -0.000471   -0.000398    0.000043
N    -1.057770    0.780211   -0.032019   -0.000709    0.000015    0.000020
C     0.187175    1.425143   -0.112154   -0.004701    0.004908   -0.000251
O    -2.424425   -1.053569    0.141171    0.000059    0.000065   -0.000007
O     0.240198    2.647674   -0.204740    0.000457   -0.001280    0.000088
H     2.066313   -1.676490    0.073893   -0.423522    0.386294   -0.018575
H    -0.284211   -2.346602    0.186044    0.002387   -0.008530    0.000647
H    -1.883567    1.377485   -0.056306    0.000372   -0.000295    0.000006
H     2.922566    1.184237   -0.163466   -1.759129   -0.730438    0.099629
12
* Frequency(33) 3243.1544
C     1.275887    0.497239   -0.070018    0.155720    0.072547   -0.009415
C     1.098781   -0.804627    0.032056    0.035473   -0.045401    0.002530
N    -0.151635   -1.344272    0.103552   -0.002521   -0.000371    0.000091
C    -1.303181   -0.575657    0.076266   -0.000471   -0.000398    0.000043
N    -1.057802    0.780212   -0.032018   -0.000709    0.000015    0.000020
C     0.186957    1.425370   -0.112166   -0.004701    0.004908   -0.000251
O    -2.424422   -1.053566    0.141171    0.000059    0.000065   -0.000007
O     0.240219    2.647615   -0.204736    0.000457   -0.001280    0.000088
H     2.046712   -1.658611    0.073033   -0.423522    0.386294   -0.018575
H    -0.284101   -2.346997    0.186074    0.002387   -0.008530    0.000647
H    -1.883550    1.377471   -0.056306    0.000372   -0.000295    0.000006
H     2.841150    1.150431   -0.158855   -1.759129   -0.730438    0.099629
12
* Frequency(33) 3243.1544
C     1.288038    0.502900   -0.070753    0.155720    0.072547   -0.009415
C     1.101550   -0.808170    0.032253    0.035473   -0.045401    0.002530
N    -0.151832   -1.344301    0.103559   -0.002521   -0.000371    0.000091
C    -1.303218   -0.575688    0.076269   -0.000471   -0.000398    0.000043
N    -1.057858    0.780213   -0.032017   -0.000709    0.000015    0.000020
C     0.186590    1.425753   -0.112186   -0.004701    0.004908   -0.000251
O    -2.424417   -1.053561    0.141170    0.000059    0.000065   -0.000007
O     0.240255    2.647515   -0.204729    0.000457   -0.001280    0.000088
H     2.013663   -1.628467    0.071584   -0.423522    0.386294   -0.018575
H    -0.283915   -2.347663    0.186124    0.002387   -0.008530    0.000647
H    -1.883521    1.377448   -0.056306    0.000372   -0.000295    0.000006
H     2.703879    1.093432   -0.151081   -1.759129   -0.730438    0.099629
12
* Frequency(33) 3243.1544
C     1.303817    0.510252   -0.071707    0.155720    0.072547   -0.009415
C     1.105144   -0.812770    0.032510    0.035473   -0.045401    0.002530
N    -0.152087   -1.344339    0.103568   -0.002521   -0.000371    0.000091
C    -1.303266   -0.575729    0.076273   -0.000471   -0.000398    0.000043
N    -1.057930    0.780215   -0.032015   -0.000709    0.000015    0.000020
C     0.186114    1.426251   -0.112211   -0.004701    0.004908   -0.000251
O    -2.424411   -1.053554    0.141170    0.000059    0.000065   -0.000007
O     0.240301    2.647385   -0.204720    0.000457   -0.001280    0.000088
H     1.970747   -1.589324    0.069702   -0.423522    0.386294   -0.018575
H    -0.283673   -2.348527    0.186190    0.002387   -0.008530    0.000647
H    -1.883483    1.377419   -0.056305    0.000372   -0.000295    0.000006
H     2.525627    1.019417   -0.140986   -1.759129   -0.730438    0.099629
12
* Frequency(33) 3243.1544
C     1.321514    0.518496   -0.072777    0.155720    0.072547   -0.009415
C     1.109175   -0.817930    0.032797    0.035473   -0.045401    0.002530
N    -0.152373   -1.344381    0.103578   -0.002521   -0.000371    0.000091
C    -1.303319   -0.575774    0.076278   -0.000471   -0.000398    0.000043
N    -1.058010    0.780216   -0.032013   -0.000709    0.000015    0.000020
C     0.185580    1.426809   -0.112240   -0.004701    0.004908   -0.000251
O    -2.424404   -1.053547    0.141169    0.000059    0.000065   -0.000007
O     0.240353    2.647240   -0.204710    0.000457   -0.001280    0.000088
H     1.922616   -1.545424    0.067591   -0.423522    0.386294   -0.018575
H    -0.283402   -2.349496    0.186263    0.002387   -0.008530    0.000647
H    -1.883441    1.377385   -0.056304    0.000372   -0.000295    0.000006
H     2.325711    0.936406   -0.129663   -1.759129   -0.730438    0.099629
