12
* (null), Energy   -1000.0000000
C     1.321514    0.518496   -0.072777   -0.008630   -0.028365   -0.365855
C     1.109175   -0.817930    0.032797    0.012635    0.034042    0.472520
N    -0.152373   -1.344381    0.103578   -0.008261   -0.027200   -0.342506
C    -1.303319   -0.575774    0.076278   -0.001656   -0.008415   -0.122804
N    -1.058010    0.780216   -0.032013    0.006151    0.012752    0.175955
C     0.185580    1.426809   -0.112240   -0.006022   -0.019324   -0.247816
O    -2.424404   -1.053547    0.141169    0.001699    0.007330    0.045913
O     0.240353    2.647240   -0.204710   -0.001731    0.008023    0.114171
H     1.922616   -1.545424    0.067591    0.040288    0.116649    1.556273
H    -0.283402   -2.349496    0.186263    0.006714    0.032569    0.410479
H    -1.883441    1.377385   -0.056304    0.024211    0.066403    0.884762
H     2.325711    0.936406   -0.129663    0.002394    0.004337    0.067217
12
* Frequency(9)  405.1608
C     1.320533    0.515273   -0.114354   -0.008630   -0.028365   -0.365855
C     1.110611   -0.814061    0.086497    0.012635    0.034042    0.472520
N    -0.153312   -1.347472    0.064654   -0.008261   -0.027200   -0.342506
C    -1.303507   -0.576730    0.062322   -0.001656   -0.008415   -0.122804
N    -1.057311    0.781666   -0.012016    0.006151    0.012752    0.175955
C     0.184895    1.424612   -0.140403   -0.006022   -0.019324   -0.247816
O    -2.424211   -1.052714    0.146386    0.001699    0.007330    0.045913
O     0.240157    2.648152   -0.191735   -0.001731    0.008023    0.114171
H     1.927195   -1.532167    0.244453    0.040288    0.116649    1.556273
H    -0.282638   -2.345795    0.232912    0.006714    0.032569    0.410479
H    -1.880689    1.384931    0.044244    0.024211    0.066403    0.884762
H     2.325983    0.936899   -0.122024    0.002394    0.004337    0.067217
12
* Frequency(9)  405.1608
C     1.319659    0.512399   -0.151426   -0.008630   -0.028365   -0.365855
C     1.111891   -0.810612    0.134377    0.012635    0.034042    0.472520
N    -0.154149   -1.350229    0.029948   -0.008261   -0.027200   -0.342506
C    -1.303675   -0.577583    0.049879   -0.001656   -0.008415   -0.122804
N    -1.056688    0.782958    0.005813    0.006151    0.012752    0.175955
C     0.184285    1.422654   -0.165514   -0.006022   -0.019324   -0.247816
O    -2.424039   -1.051971    0.151039    0.001699    0.007330    0.045913
O     0.239981    2.648965   -0.180166   -0.001731    0.008023    0.114171
H     1.931277   -1.520347    0.402150    0.040288    0.116649    1.556273
H    -0.281958   -2.342495    0.274506    0.006714    0.032569    0.410479
H    -1.878236    1.391660    0.133897    0.024211    0.066403    0.884762
H     2.326225    0.937339   -0.115213    0.002394    0.004337    0.067217
12
* Frequency(9)  405.1608
C     1.318985    0.510185   -0.179975   -0.008630   -0.028365   -0.365855
C     1.112877   -0.807956    0.171249    0.012635    0.034042    0.472520
N    -0.154794   -1.352351    0.003221   -0.008261   -0.027200   -0.342506
C    -1.303804   -0.578240    0.040296   -0.001656   -0.008415   -0.122804
N    -1.056208    0.783953    0.019544    0.006151    0.012752    0.175955
C     0.183815    1.421147   -0.184852   -0.006022   -0.019324   -0.247816
O    -2.423907   -1.051399    0.154622    0.001699    0.007330    0.045913
O     0.239846    2.649591   -0.171257   -0.001731    0.008023    0.114171
H     1.934421   -1.511245    0.523592    0.040288    0.116649    1.556273
H    -0.281434   -2.339953    0.306537    0.006714    0.032569    0.410479
H    -1.876347    1.396842    0.202938    0.024211    0.066403    0.884762
H     2.326412    0.937677   -0.109968    0.002394    0.004337    0.067217
12
* Frequency(9)  405.1608
C     1.318586    0.508872   -0.196908   -0.008630   -0.028365   -0.365855
C     1.113462   -0.806380    0.193118    0.012635    0.034042    0.472520
N    -0.155176   -1.353610   -0.012631   -0.008261   -0.027200   -0.342506
C    -1.303881   -0.578629    0.034612   -0.001656   -0.008415   -0.122804
N    -1.055923    0.784543    0.027687    0.006151    0.012752    0.175955
C     0.183537    1.420252   -0.196321   -0.006022   -0.019324   -0.247816
O    -2.423828   -1.051060    0.156746    0.001699    0.007330    0.045913
O     0.239766    2.649962   -0.165973   -0.001731    0.008023    0.114171
H     1.936285   -1.505846    0.595619    0.040288    0.116649    1.556273
H    -0.281123   -2.338446    0.325535    0.006714    0.032569    0.410479
H    -1.875226    1.399915    0.243886    0.024211    0.066403    0.884762
H     2.326523    0.937878   -0.106857    0.002394    0.004337    0.067217
12
* Frequency(9)  405.1608
C     1.318504    0.508603   -0.200389   -0.008630   -0.028365   -0.365855
C     1.113582   -0.806056    0.197614    0.012635    0.034042    0.472520
N    -0.155255   -1.353869   -0.015889   -0.008261   -0.027200   -0.342506
C    -1.303897   -0.578709    0.033444   -0.001656   -0.008415   -0.122804
N    -1.055865    0.784664    0.029361    0.006151    0.012752    0.175955
C     0.183479    1.420068   -0.198679   -0.006022   -0.019324   -0.247816
O    -2.423812   -1.050990    0.157183    0.001699    0.007330    0.045913
O     0.239750    2.650038   -0.164887   -0.001731    0.008023    0.114171
H     1.936669   -1.504736    0.610426    0.040288    0.116649    1.556273
H    -0.281060   -2.338136    0.329440    0.006714    0.032569    0.410479
H    -1.874996    1.400547    0.252305    0.024211    0.066403    0.884762
H     2.326546    0.937919   -0.106218    0.002394    0.004337    0.067217
12
* Frequency(9)  405.1608
C     1.318748    0.509405   -0.190041   -0.008630   -0.028365   -0.365855
C     1.113225   -0.807019    0.184249    0.012635    0.034042    0.472520
N    -0.155021   -1.353099   -0.006202   -0.008261   -0.027200   -0.342506
C    -1.303850   -0.578471    0.036917   -0.001656   -0.008415   -0.122804
N    -1.056039    0.784304    0.024384    0.006151    0.012752    0.175955
C     0.183650    1.420615   -0.191670   -0.006022   -0.019324   -0.247816
O    -2.423860   -1.051197    0.155885    0.001699    0.007330    0.045913
O     0.239798    2.649812   -0.168116   -0.001731    0.008023    0.114171
H     1.935529   -1.508036    0.566408    0.040288    0.116649    1.556273
H    -0.281249   -2.339057    0.317830    0.006714    0.032569    0.410479
H    -1.875681    1.398669    0.227280    0.024211    0.066403    0.884762
H     2.326478    0.937796   -0.108119    0.002394    0.004337    0.067217
12
* Frequency(9)  405.1608
C     1.319292    0.511192   -0.166986   -0.008630   -0.028365   -0.365855
C     1.112429   -0.809164    0.154473    0.012635    0.034042    0.472520
N    -0.154501   -1.351385    0.015382   -0.008261   -0.027200   -0.342506
C    -1.303746   -0.577941    0.044656   -0.001656   -0.008415   -0.122804
N    -1.056426    0.783500    0.013296    0.006151    0.012752    0.175955
C     0.184029    1.421833   -0.176053   -0.006022   -0.019324   -0.247816
O    -2.423967   -1.051659    0.152991    0.001699    0.007330    0.045913
O     0.239908    2.649306   -0.175311   -0.001731    0.008023    0.114171
H     1.932990   -1.515386    0.468336    0.040288    0.116649    1.556273
H    -0.281673   -2.341110    0.291963    0.006714    0.032569    0.410479
H    -1.877206    1.394484    0.171525    0.024211    0.066403    0.884762
H     2.326327    0.937523   -0.112355    0.002394    0.004337    0.067217
12
* Frequency(9)  405.1608
C     1.320076    0.513771   -0.133721   -0.008630   -0.028365   -0.365855
C     1.111280   -0.812259    0.111510    0.012635    0.034042    0.472520
N    -0.153750   -1.348912    0.046523   -0.008261   -0.027200   -0.342506
C    -1.303595   -0.577176    0.055821   -0.001656   -0.008415   -0.122804
N    -1.056986    0.782341   -0.002702    0.006151    0.012752    0.175955
C     0.184577    1.423590   -0.153521   -0.006022   -0.019324   -0.247816
O    -2.424121   -1.052326    0.148817    0.001699    0.007330    0.045913
O     0.240065    2.648576   -0.185691   -0.001731    0.008023    0.114171
H     1.929327   -1.525992    0.326837    0.040288    0.116649    1.556273
H    -0.282283   -2.344071    0.254642    0.006714    0.032569    0.410479
H    -1.879408    1.388447    0.091081    0.024211    0.066403    0.884762
H     2.326110    0.937129   -0.118466    0.002394    0.004337    0.067217
12
* Frequency(9)  405.1608
C     1.321017    0.516862   -0.093853   -0.008630   -0.028365   -0.365855
C     1.109903   -0.815969    0.060018    0.012635    0.034042    0.472520
N    -0.152849   -1.345948    0.083847   -0.008261   -0.027200   -0.342506
C    -1.303415   -0.576259    0.069204   -0.001656   -0.008415   -0.122804
N    -1.057656    0.780951   -0.021876    0.006151    0.012752    0.175955
C     0.185233    1.425695   -0.126516   -0.006022   -0.019324   -0.247816
O    -2.424307   -1.053124    0.143814    0.001699    0.007330    0.045913
O     0.240254    2.647702   -0.198133   -0.001731    0.008023    0.114171
H     1.924937   -1.538704    0.157245    0.040288    0.116649    1.556273
H    -0.283015   -2.347620    0.209910    0.006714    0.032569    0.410479
H    -1.882046    1.381210   -0.005335    0.024211    0.066403    0.884762
H     2.325849    0.936656   -0.125791    0.002394    0.004337    0.067217
12
* Frequency(9)  405.1608
C     1.322011    0.520130   -0.051701   -0.008630   -0.028365   -0.365855
C     1.108447   -0.819891    0.005576    0.012635    0.034042    0.472520
N    -0.151898   -1.342814    0.123309   -0.008261   -0.027200   -0.342506
C    -1.303224   -0.575289    0.083353   -0.001656   -0.008415   -0.122804
N    -1.058365    0.779482   -0.042149    0.006151    0.012752    0.175955
C     0.185927    1.427922   -0.097963   -0.006022   -0.019324   -0.247816
O    -2.424502   -1.053969    0.138524    0.001699    0.007330    0.045913
O     0.240453    2.646778   -0.211287   -0.001731    0.008023    0.114171
H     1.920295   -1.552144   -0.022063    0.040288    0.116649    1.556273
H    -0.283788   -2.351373    0.162616    0.006714    0.032569    0.410479
H    -1.884835    1.373560   -0.107274    0.024211    0.066403    0.884762
H     2.325573    0.936156   -0.133535    0.002394    0.004337    0.067217
12
* Frequency(9)  405.1608
C     1.322951    0.523221   -0.011832   -0.008630   -0.028365   -0.365855
C     1.107071   -0.823601   -0.045916    0.012635    0.034042    0.472520
N    -0.150997   -1.339850    0.160634   -0.008261   -0.027200   -0.342506
C    -1.303043   -0.574372    0.096735   -0.001656   -0.008415   -0.122804
N    -1.059035    0.778092   -0.061323    0.006151    0.012752    0.175955
C     0.186583    1.430028   -0.070958   -0.006022   -0.019324   -0.247816
O    -2.424687   -1.054768    0.133521    0.001699    0.007330    0.045913
O     0.240642    2.645903   -0.223729   -0.001731    0.008023    0.114171
H     1.915905   -1.564856   -0.191655    0.040288    0.116649    1.556273
H    -0.284520   -2.354922    0.117885    0.006714    0.032569    0.410479
H    -1.887474    1.366324   -0.203689    0.024211    0.066403    0.884762
H     2.325312    0.935684   -0.140860    0.002394    0.004337    0.067217
12
* Frequency(9)  405.1608
C     1.323736    0.525800    0.021432   -0.008630   -0.028365   -0.365855
C     1.105922   -0.826696   -0.088878    0.012635    0.034042    0.472520
N    -0.150246   -1.337377    0.191775   -0.008261   -0.027200   -0.342506
C    -1.302893   -0.573607    0.107901   -0.001656   -0.008415   -0.122804
N    -1.059594    0.776933   -0.077322    0.006151    0.012752    0.175955
C     0.187131    1.431784   -0.048426   -0.006022   -0.019324   -0.247816
O    -2.424842   -1.055434    0.129346    0.001699    0.007330    0.045913
O     0.240799    2.645174   -0.234110   -0.001731    0.008023    0.114171
H     1.912242   -1.575461   -0.333154    0.040288    0.116649    1.556273
H    -0.285130   -2.357883    0.080564    0.006714    0.032569    0.410479
H    -1.889675    1.360286   -0.284134    0.024211    0.066403    0.884762
H     2.325094    0.935289   -0.146972    0.002394    0.004337    0.067217
12
* Frequency(9)  405.1608
C     1.324280    0.527588    0.044487   -0.008630   -0.028365   -0.365855
C     1.105126   -0.828841   -0.118655    0.012635    0.034042    0.472520
N    -0.149726   -1.335663    0.213359   -0.008261   -0.027200   -0.342506
C    -1.302788   -0.573077    0.115639   -0.001656   -0.008415   -0.122804
N    -1.059982    0.776129   -0.088410    0.006151    0.012752    0.175955
C     0.187510    1.433002   -0.032809   -0.006022   -0.019324   -0.247816
O    -2.424949   -1.055896    0.126453    0.001699    0.007330    0.045913
O     0.240908    2.644668   -0.241304   -0.001731    0.008023    0.114171
H     1.909703   -1.582812   -0.431227    0.040288    0.116649    1.556273
H    -0.285554   -2.359936    0.054696    0.006714    0.032569    0.410479
H    -1.891201    1.356102   -0.339889    0.024211    0.066403    0.884762
H     2.324944    0.935016   -0.151208    0.002394    0.004337    0.067217
12
* Frequency(9)  405.1608
C     1.324524    0.528390    0.054835   -0.008630   -0.028365   -0.365855
C     1.104768   -0.829804   -0.132020    0.012635    0.034042    0.472520
N    -0.149492   -1.334894    0.223046   -0.008261   -0.027200   -0.342506
C    -1.302741   -0.572839    0.119113   -0.001656   -0.008415   -0.122804
N    -1.060156    0.775769   -0.093386    0.006151    0.012752    0.175955
C     0.187680    1.433549   -0.025800   -0.006022   -0.019324   -0.247816
O    -2.424997   -1.056104    0.125154    0.001699    0.007330    0.045913
O     0.240957    2.644441   -0.244534   -0.001731    0.008023    0.114171
H     1.908564   -1.586112   -0.475244    0.040288    0.116649    1.556273
H    -0.285744   -2.360857    0.043086    0.006714    0.032569    0.410479
H    -1.891886    1.354223   -0.364913    0.024211    0.066403    0.884762
H     2.324876    0.934893   -0.153109    0.002394    0.004337    0.067217
12
* Frequency(9)  405.1608
C     1.324442    0.528120    0.051354   -0.008630   -0.028365   -0.365855
C     1.104888   -0.829480   -0.127524    0.012635    0.034042    0.472520
N    -0.149571   -1.335152    0.219787   -0.008261   -0.027200   -0.342506
C    -1.302757   -0.572919    0.117944   -0.001656   -0.008415   -0.122804
N    -1.060097    0.775890   -0.091712    0.006151    0.012752    0.175955
C     0.187623    1.433365   -0.028158   -0.006022   -0.019324   -0.247816
O    -2.424981   -1.056034    0.125591    0.001699    0.007330    0.045913
O     0.240941    2.644518   -0.243447   -0.001731    0.008023    0.114171
H     1.908947   -1.585002   -0.460437    0.040288    0.116649    1.556273
H    -0.285680   -2.360547    0.046992    0.006714    0.032569    0.410479
H    -1.891655    1.354855   -0.356495    0.024211    0.066403    0.884762
H     2.324899    0.934935   -0.152469    0.002394    0.004337    0.067217
12
* Frequency(9)  405.1608
C     1.324042    0.526807    0.034422   -0.008630   -0.028365   -0.365855
C     1.105473   -0.827905   -0.105655    0.012635    0.034042    0.472520
N    -0.149953   -1.336411    0.203936   -0.008261   -0.027200   -0.342506
C    -1.302834   -0.573308    0.112261   -0.001656   -0.008415   -0.122804
N    -1.059812    0.776480   -0.083569    0.006151    0.012752    0.175955
C     0.187344    1.432471   -0.039627   -0.006022   -0.019324   -0.247816
O    -2.424902   -1.055695    0.127716    0.001699    0.007330    0.045913
O     0.240861    2.644889   -0.238163   -0.001731    0.008023    0.114171
H     1.910812   -1.579603   -0.388410    0.040288    0.116649    1.556273
H    -0.285369   -2.359040    0.065990    0.006714    0.032569    0.410479
H    -1.890535    1.357929   -0.315547    0.024211    0.066403    0.884762
H     2.325009    0.935135   -0.149358    0.002394    0.004337    0.067217
12
* Frequency(9)  405.1608
C     1.323369    0.524594    0.005873   -0.008630   -0.028365   -0.365855
C     1.106459   -0.825248   -0.068782    0.012635    0.034042    0.472520
N    -0.150598   -1.338534    0.177208   -0.008261   -0.027200   -0.342506
C    -1.302963   -0.573965    0.102678   -0.001656   -0.008415   -0.122804
N    -1.059332    0.777475   -0.069838    0.006151    0.012752    0.175955
C     0.186874    1.430963   -0.058965   -0.006022   -0.019324   -0.247816
O    -2.424770   -1.055123    0.131299    0.001699    0.007330    0.045913
O     0.240726    2.645515   -0.229254   -0.001731    0.008023    0.114171
H     1.913955   -1.570501   -0.266968    0.040288    0.116649    1.556273
H    -0.284845   -2.356498    0.098021    0.006714    0.032569    0.410479
H    -1.888645    1.363110   -0.246506    0.024211    0.066403    0.884762
H     2.325196    0.935474   -0.144113    0.002394    0.004337    0.067217
12
* Frequency(9)  405.1608
C     1.322495    0.521720   -0.031199   -0.008630   -0.028365   -0.365855
C     1.107739   -0.821799   -0.020902    0.012635    0.034042    0.472520
N    -0.151435   -1.341290    0.142502   -0.008261   -0.027200   -0.342506
C    -1.303131   -0.574818    0.090234   -0.001656   -0.008415   -0.122804
N    -1.058709    0.778767   -0.052009    0.006151    0.012752    0.175955
C     0.186264    1.429005   -0.084077   -0.006022   -0.019324   -0.247816
O    -2.424597   -1.054380    0.135951    0.001699    0.007330    0.045913
O     0.240550    2.646328   -0.217685   -0.001731    0.008023    0.114171
H     1.918038   -1.558681   -0.109271    0.040288    0.116649    1.556273
H    -0.284165   -2.353198    0.139614    0.006714    0.032569    0.410479
H    -1.886192    1.369839   -0.156853    0.024211    0.066403    0.884762
H     2.325439    0.935913   -0.137302    0.002394    0.004337    0.067217
12
* Frequency(9)  405.1608
C     1.321514    0.518496   -0.072777   -0.008630   -0.028365   -0.365855
C     1.109175   -0.817930    0.032797    0.012635    0.034042    0.472520
N    -0.152373   -1.344381    0.103578   -0.008261   -0.027200   -0.342506
C    -1.303319   -0.575774    0.076278   -0.001656   -0.008415   -0.122804
N    -1.058010    0.780216   -0.032013    0.006151    0.012752    0.175955
C     0.185580    1.426809   -0.112240   -0.006022   -0.019324   -0.247816
O    -2.424404   -1.053547    0.141169    0.001699    0.007330    0.045913
O     0.240353    2.647240   -0.204710   -0.001731    0.008023    0.114171
H     1.922616   -1.545424    0.067591    0.040288    0.116649    1.556273
H    -0.283402   -2.349496    0.186263    0.006714    0.032569    0.410479
H    -1.883441    1.377385   -0.056304    0.024211    0.066403    0.884762
H     2.325711    0.936406   -0.129663    0.002394    0.004337    0.067217
