12
* (null), Energy   -1000.0000000
C     1.321514    0.518496   -0.072777   -0.026285    0.159791   -0.011244
C     1.109175   -0.817930    0.032797    0.007456   -0.050435    0.003818
N    -0.152373   -1.344381    0.103578   -0.244197   -0.023211    0.007755
C    -1.303319   -0.575774    0.076278    1.224293    0.520707   -0.071079
N    -1.058010    0.780216   -0.032013   -0.142878   -0.079900    0.009532
C     0.185580    1.426809   -0.112240    0.027667   -0.615923    0.045479
O    -2.424404   -1.053547    0.141169   -0.685240   -0.295058    0.039995
O     0.240353    2.647240   -0.204710    0.018661    0.371320   -0.028189
H     1.922616   -1.545424    0.067591    0.085615    0.041720   -0.005511
H    -0.283402   -2.349496    0.186263    0.861819   -0.173250   -0.006694
H    -1.883441    1.377385   -0.056304    0.198873    0.388834   -0.033774
H     2.325711    0.936406   -0.129663    0.118797   -0.203405    0.011884
12
* Frequency(31) 1796.4796
C     1.318527    0.536656   -0.074055   -0.026285    0.159791   -0.011244
C     1.110023   -0.823662    0.033231    0.007456   -0.050435    0.003818
N    -0.180125   -1.347019    0.104460   -0.244197   -0.023211    0.007755
C    -1.164185   -0.516598    0.068201    1.224293    0.520707   -0.071079
N    -1.074248    0.771136   -0.030929   -0.142878   -0.079900    0.009532
C     0.188724    1.356812   -0.107071    0.027667   -0.615923    0.045479
O    -2.502278   -1.087079    0.145714   -0.685240   -0.295058    0.039995
O     0.242474    2.689438   -0.207914    0.018661    0.371320   -0.028189
H     1.932346   -1.540683    0.066965    0.085615    0.041720   -0.005511
H    -0.185460   -2.369185    0.185503    0.861819   -0.173250   -0.006694
H    -1.860840    1.421574   -0.060143    0.198873    0.388834   -0.033774
H     2.339211    0.913290   -0.128313    0.118797   -0.203405    0.011884
12
* Frequency(31) 1796.4796
C     1.315863    0.552847   -0.075194   -0.026285    0.159791   -0.011244
C     1.110778   -0.828772    0.033618    0.007456   -0.050435    0.003818
N    -0.204870   -1.349371    0.105246   -0.244197   -0.023211    0.007755
C    -1.040127   -0.463835    0.060998    1.224293    0.520707   -0.071079
N    -1.088725    0.763040   -0.029963   -0.142878   -0.079900    0.009532
C     0.191528    1.294401   -0.102463    0.027667   -0.615923    0.045479
O    -2.571713   -1.116977    0.149767   -0.685240   -0.295058    0.039995
O     0.244365    2.727064   -0.210770    0.018661    0.371320   -0.028189
H     1.941021   -1.536455    0.066406    0.085615    0.041720   -0.005511
H    -0.098132   -2.386741    0.184824    0.861819   -0.173250   -0.006694
H    -1.840688    1.460975   -0.063565    0.198873    0.388834   -0.033774
H     2.351249    0.892679   -0.127108    0.118797   -0.203405    0.011884
12
* Frequency(31) 1796.4796
C     1.313812    0.565316   -0.076071   -0.026285    0.159791   -0.011244
C     1.111360   -0.832708    0.033916    0.007456   -0.050435    0.003818
N    -0.223925   -1.351182    0.105851   -0.244197   -0.023211    0.007755
C    -0.944591   -0.423203    0.055452    1.224293    0.520707   -0.071079
N    -1.099875    0.756805   -0.029220   -0.142878   -0.079900    0.009532
C     0.193687    1.246338   -0.098914    0.027667   -0.615923    0.045479
O    -2.625185   -1.140001    0.152888   -0.685240   -0.295058    0.039995
O     0.245821    2.756040   -0.212970    0.018661    0.371320   -0.028189
H     1.947702   -1.533200    0.065976    0.085615    0.041720   -0.005511
H    -0.030881   -2.400260    0.184302    0.861819   -0.173250   -0.006694
H    -1.825169    1.491317   -0.066200    0.198873    0.388834   -0.033774
H     2.360519    0.876807   -0.126181    0.118797   -0.203405    0.011884
12
* Frequency(31) 1796.4796
C     1.312596    0.572712   -0.076592   -0.026285    0.159791   -0.011244
C     1.111705   -0.835042    0.034093    0.007456   -0.050435    0.003818
N    -0.235227   -1.352256    0.106210   -0.244197   -0.023211    0.007755
C    -0.887929   -0.399103    0.052162    1.224293    0.520707   -0.071079
N    -1.106487    0.753107   -0.028778   -0.142878   -0.079900    0.009532
C     0.194967    1.217832   -0.096809    0.027667   -0.615923    0.045479
O    -2.656899   -1.153657    0.154739   -0.685240   -0.295058    0.039995
O     0.246685    2.773225   -0.214274    0.018661    0.371320   -0.028189
H     1.951665   -1.531269    0.065721    0.085615    0.041720   -0.005511
H     0.009005   -2.408278    0.183992    0.861819   -0.173250   -0.006694
H    -1.815965    1.509313   -0.067763    0.198873    0.388834   -0.033774
H     2.366017    0.867393   -0.125631    0.118797   -0.203405    0.011884
12
* Frequency(31) 1796.4796
C     1.312346    0.574232   -0.076699   -0.026285    0.159791   -0.011244
C     1.111776   -0.835522    0.034129    0.007456   -0.050435    0.003818
N    -0.237551   -1.352477    0.106283   -0.244197   -0.023211    0.007755
C    -0.876280   -0.394149    0.051486    1.224293    0.520707   -0.071079
N    -1.107847    0.752347   -0.028688   -0.142878   -0.079900    0.009532
C     0.195230    1.211972   -0.096376    0.027667   -0.615923    0.045479
O    -2.663419   -1.156464    0.155119   -0.685240   -0.295058    0.039995
O     0.246862    2.776758   -0.214543    0.018661    0.371320   -0.028189
H     1.952479   -1.530872    0.065669    0.085615    0.041720   -0.005511
H     0.017205   -2.409927    0.183928    0.861819   -0.173250   -0.006694
H    -1.814073    1.513012   -0.068085    0.198873    0.388834   -0.033774
H     2.367148    0.865458   -0.125518    0.118797   -0.203405    0.011884
12
* Frequency(31) 1796.4796
C     1.313089    0.569713   -0.076381   -0.026285    0.159791   -0.011244
C     1.111565   -0.834096    0.034021    0.007456   -0.050435    0.003818
N    -0.230644   -1.351821    0.106064   -0.244197   -0.023211    0.007755
C    -0.910908   -0.408877    0.053496    1.224293    0.520707   -0.071079
N    -1.103806    0.754607   -0.028957   -0.142878   -0.079900    0.009532
C     0.194448    1.229392   -0.097663    0.027667   -0.615923    0.045479
O    -2.644038   -1.148119    0.153988   -0.685240   -0.295058    0.039995
O     0.246335    2.766256   -0.213745    0.018661    0.371320   -0.028189
H     1.950058   -1.532052    0.065825    0.085615    0.041720   -0.005511
H    -0.007171   -2.405027    0.184118    0.861819   -0.173250   -0.006694
H    -1.819698    1.502015   -0.067130    0.198873    0.388834   -0.033774
H     2.363788    0.871211   -0.125854    0.118797   -0.203405    0.011884
12
* Frequency(31) 1796.4796
C     1.314745    0.559643   -0.075672   -0.026285    0.159791   -0.011244
C     1.111095   -0.830917    0.033780    0.007456   -0.050435    0.003818
N    -0.215255   -1.350358    0.105575   -0.244197   -0.023211    0.007755
C    -0.988059   -0.441690    0.057975    1.224293    0.520707   -0.071079
N    -1.094802    0.759642   -0.029558   -0.142878   -0.079900    0.009532
C     0.192704    1.268206   -0.100529    0.027667   -0.615923    0.045479
O    -2.600856   -1.129525    0.151468   -0.685240   -0.295058    0.039995
O     0.245159    2.742856   -0.211969    0.018661    0.371320   -0.028189
H     1.944662   -1.534681    0.066172    0.085615    0.041720   -0.005511
H    -0.061480   -2.394109    0.184540    0.861819   -0.173250   -0.006694
H    -1.832230    1.477511   -0.065001    0.198873    0.388834   -0.033774
H     2.356301    0.884029   -0.126603    0.118797   -0.203405    0.011884
12
* Frequency(31) 1796.4796
C     1.317135    0.545115   -0.074650   -0.026285    0.159791   -0.011244
C     1.110417   -0.826332    0.033433    0.007456   -0.050435    0.003818
N    -0.193052   -1.348248    0.104870   -0.244197   -0.023211    0.007755
C    -1.099374   -0.489034    0.064438    1.224293    0.520707   -0.071079
N    -1.081811    0.766906   -0.030425   -0.142878   -0.079900    0.009532
C     0.190189    1.324207   -0.104664    0.027667   -0.615923    0.045479
O    -2.538553   -1.102698    0.147831   -0.685240   -0.295058    0.039995
O     0.243462    2.709095   -0.209406    0.018661    0.371320   -0.028189
H     1.936878   -1.538474    0.066673    0.085615    0.041720   -0.005511
H    -0.139838   -2.378357    0.185148    0.861819   -0.173250   -0.006694
H    -1.850312    1.442158   -0.061930    0.198873    0.388834   -0.033774
H     2.345500    0.902523   -0.127684    0.118797   -0.203405    0.011884
12
* Frequency(31) 1796.4796
C     1.320000    0.527702   -0.073424   -0.026285    0.159791   -0.011244
C     1.109605   -0.820836    0.033017    0.007456   -0.050435    0.003818
N    -0.166441   -1.345718    0.104025   -0.244197   -0.023211    0.007755
C    -1.232790   -0.545777    0.072184    1.224293    0.520707   -0.071079
N    -1.066241    0.775613   -0.031463   -0.142878   -0.079900    0.009532
C     0.187174    1.391326   -0.109620    0.027667   -0.615923    0.045479
O    -2.463880   -1.070544    0.143473   -0.685240   -0.295058    0.039995
O     0.241428    2.668631   -0.206334    0.018661    0.371320   -0.028189
H     1.927548   -1.543021    0.067273    0.085615    0.041720   -0.005511
H    -0.233754   -2.359477    0.185878    0.861819   -0.173250   -0.006694
H    -1.871984    1.399785   -0.058250    0.198873    0.388834   -0.033774
H     2.332554    0.924688   -0.128979    0.118797   -0.203405    0.011884
12
* Frequency(31) 1796.4796
C     1.323028    0.509291   -0.072129   -0.026285    0.159791   -0.011244
C     1.108746   -0.815025    0.032577    0.007456   -0.050435    0.003818
N    -0.138306   -1.343044    0.103132   -0.244197   -0.023211    0.007755
C    -1.373848   -0.605771    0.080373    1.224293    0.520707   -0.071079
N    -1.049779    0.784819   -0.032562   -0.142878   -0.079900    0.009532
C     0.183986    1.462291   -0.114860    0.027667   -0.615923    0.045479
O    -2.384929   -1.036549    0.138865   -0.685240   -0.295058    0.039995
O     0.239278    2.625849   -0.203086    0.018661    0.371320   -0.028189
H     1.917684   -1.547827    0.067908    0.085615    0.041720   -0.005511
H    -0.333049   -2.339516    0.186649    0.861819   -0.173250   -0.006694
H    -1.894897    1.354985   -0.054359    0.198873    0.388834   -0.033774
H     2.318867    0.948124   -0.130348    0.118797   -0.203405    0.011884
12
* Frequency(31) 1796.4796
C     1.325892    0.491878   -0.070904   -0.026285    0.159791   -0.011244
C     1.107933   -0.809528    0.032161    0.007456   -0.050435    0.003818
N    -0.111695   -1.340515    0.102286   -0.244197   -0.023211    0.007755
C    -1.507264   -0.662514    0.088119    1.224293    0.520707   -0.071079
N    -1.034209    0.793526   -0.033601   -0.142878   -0.079900    0.009532
C     0.180971    1.529410   -0.119816    0.027667   -0.615923    0.045479
O    -2.310256   -1.004395    0.134506   -0.685240   -0.295058    0.039995
O     0.237245    2.585385   -0.200014    0.018661    0.371320   -0.028189
H     1.908354   -1.552374    0.068509    0.085615    0.041720   -0.005511
H    -0.426965   -2.320636    0.187378    0.861819   -0.173250   -0.006694
H    -1.916569    1.312612   -0.050678    0.198873    0.388834   -0.033774
H     2.305921    0.970290   -0.131643    0.118797   -0.203405    0.011884
12
* Frequency(31) 1796.4796
C     1.328282    0.477349   -0.069881   -0.026285    0.159791   -0.011244
C     1.107255   -0.804943    0.031814    0.007456   -0.050435    0.003818
N    -0.089492   -1.338404    0.101581   -0.244197   -0.023211    0.007755
C    -1.618579   -0.709858    0.094581    1.224293    0.520707   -0.071079
N    -1.021219    0.800791   -0.034467   -0.142878   -0.079900    0.009532
C     0.178455    1.585411   -0.123951    0.027667   -0.615923    0.045479
O    -2.247953   -0.977568    0.130870   -0.685240   -0.295058    0.039995
O     0.235548    2.551624   -0.197452    0.018661    0.371320   -0.028189
H     1.900570   -1.556167    0.069010    0.085615    0.041720   -0.005511
H    -0.505323   -2.304884    0.187987    0.861819   -0.173250   -0.006694
H    -1.934651    1.277259   -0.047608    0.198873    0.388834   -0.033774
H     2.295120    0.988784   -0.132723    0.118797   -0.203405    0.011884
12
* Frequency(31) 1796.4796
C     1.329939    0.467280   -0.069173   -0.026285    0.159791   -0.011244
C     1.106786   -0.801765    0.031573    0.007456   -0.050435    0.003818
N    -0.074103   -1.336942    0.101093   -0.244197   -0.023211    0.007755
C    -1.695730   -0.742671    0.099061    1.224293    0.520707   -0.071079
N    -1.012215    0.805826   -0.035068   -0.142878   -0.079900    0.009532
C     0.176712    1.624225   -0.126817    0.027667   -0.615923    0.045479
O    -2.204771   -0.958974    0.128350   -0.685240   -0.295058    0.039995
O     0.234372    2.528224   -0.195675    0.018661    0.371320   -0.028189
H     1.895175   -1.558796    0.069357    0.085615    0.041720   -0.005511
H    -0.559632   -2.293966    0.188409    0.861819   -0.173250   -0.006694
H    -1.947184    1.252756   -0.045479    0.198873    0.388834   -0.033774
H     2.287634    1.001602   -0.133472    0.118797   -0.203405    0.011884
12
* Frequency(31) 1796.4796
C     1.330682    0.462760   -0.068855   -0.026285    0.159791   -0.011244
C     1.106575   -0.800338    0.031465    0.007456   -0.050435    0.003818
N    -0.067196   -1.336285    0.100873   -0.244197   -0.023211    0.007755
C    -1.730358   -0.757399    0.101071    1.224293    0.520707   -0.071079
N    -1.008174    0.808086   -0.035338   -0.142878   -0.079900    0.009532
C     0.175929    1.641645   -0.128103    0.027667   -0.615923    0.045479
O    -2.185390   -0.950629    0.127218   -0.685240   -0.295058    0.039995
O     0.233844    2.517722   -0.194878    0.018661    0.371320   -0.028189
H     1.892753   -1.559976    0.069513    0.085615    0.041720   -0.005511
H    -0.584008   -2.289066    0.188598    0.861819   -0.173250   -0.006694
H    -1.952809    1.241758   -0.044524    0.198873    0.388834   -0.033774
H     2.284274    1.007355   -0.133808    0.118797   -0.203405    0.011884
12
* Frequency(31) 1796.4796
C     1.330432    0.464281   -0.068962   -0.026285    0.159791   -0.011244
C     1.106646   -0.800818    0.031502    0.007456   -0.050435    0.003818
N    -0.069520   -1.336506    0.100947   -0.244197   -0.023211    0.007755
C    -1.718710   -0.752445    0.100395    1.224293    0.520707   -0.071079
N    -1.009533    0.807326   -0.035247   -0.142878   -0.079900    0.009532
C     0.176193    1.635785   -0.127670    0.027667   -0.615923    0.045479
O    -2.191909   -0.953436    0.127599   -0.685240   -0.295058    0.039995
O     0.234022    2.521255   -0.195146    0.018661    0.371320   -0.028189
H     1.893568   -1.559579    0.069461    0.085615    0.041720   -0.005511
H    -0.575808   -2.290715    0.188535    0.861819   -0.173250   -0.006694
H    -1.950916    1.245457   -0.044845    0.198873    0.388834   -0.033774
H     2.285404    1.005419   -0.133695    0.118797   -0.203405    0.011884
12
* Frequency(31) 1796.4796
C     1.329215    0.471676   -0.069482   -0.026285    0.159791   -0.011244
C     1.106991   -0.803152    0.031678    0.007456   -0.050435    0.003818
N    -0.080822   -1.337580    0.101306   -0.244197   -0.023211    0.007755
C    -1.662047   -0.728345    0.097105    1.224293    0.520707   -0.071079
N    -1.016146    0.803628   -0.034806   -0.142878   -0.079900    0.009532
C     0.177473    1.607279   -0.125565    0.027667   -0.615923    0.045479
O    -2.223623   -0.967092    0.129450   -0.685240   -0.295058    0.039995
O     0.234886    2.538440   -0.196451    0.018661    0.371320   -0.028189
H     1.897530   -1.557648    0.069206    0.085615    0.041720   -0.005511
H    -0.535922   -2.298733    0.188225    0.861819   -0.173250   -0.006694
H    -1.941712    1.263453   -0.046408    0.198873    0.388834   -0.033774
H     2.290902    0.996005   -0.133145    0.118797   -0.203405    0.011884
12
* Frequency(31) 1796.4796
C     1.327164    0.484145   -0.070360   -0.026285    0.159791   -0.011244
C     1.107572   -0.807088    0.031976    0.007456   -0.050435    0.003818
N    -0.099877   -1.339391    0.101911   -0.244197   -0.023211    0.007755
C    -1.566511   -0.687713    0.091558    1.224293    0.520707   -0.071079
N    -1.027295    0.797393   -0.034062   -0.142878   -0.079900    0.009532
C     0.179632    1.559216   -0.122016    0.027667   -0.615923    0.045479
O    -2.277095   -0.990117    0.132571   -0.685240   -0.295058    0.039995
O     0.236342    2.567416   -0.198650    0.018661    0.371320   -0.028189
H     1.904211   -1.554393    0.068776    0.085615    0.041720   -0.005511
H    -0.468671   -2.312252    0.187702    0.861819   -0.173250   -0.006694
H    -1.926193    1.293796   -0.049044    0.198873    0.388834   -0.033774
H     2.300173    0.980133   -0.132218    0.118797   -0.203405    0.011884
12
* Frequency(31) 1796.4796
C     1.324501    0.500337   -0.071499   -0.026285    0.159791   -0.011244
C     1.108328   -0.812198    0.032363    0.007456   -0.050435    0.003818
N    -0.124622   -1.341743    0.102697   -0.244197   -0.023211    0.007755
C    -1.442454   -0.634950    0.084356    1.224293    0.520707   -0.071079
N    -1.041773    0.789297   -0.033096   -0.142878   -0.079900    0.009532
C     0.182436    1.496805   -0.117408    0.027667   -0.615923    0.045479
O    -2.346530   -1.020015    0.136624   -0.685240   -0.295058    0.039995
O     0.238233    2.605041   -0.201507    0.018661    0.371320   -0.028189
H     1.912886   -1.550165    0.068217    0.085615    0.041720   -0.005511
H    -0.381343   -2.329808    0.187024    0.861819   -0.173250   -0.006694
H    -1.906042    1.333196   -0.052466    0.198873    0.388834   -0.033774
H     2.312210    0.959522   -0.131014    0.118797   -0.203405    0.011884
12
* Frequency(31) 1796.4796
C     1.321514    0.518496   -0.072777   -0.026285    0.159791   -0.011244
C     1.109175   -0.817930    0.032797    0.007456   -0.050435    0.003818
N    -0.152373   -1.344381    0.103578   -0.244197   -0.023211    0.007755
C    -1.303319   -0.575774    0.076278    1.224293    0.520707   -0.071079
N    -1.058010    0.780216   -0.032013   -0.142878   -0.079900    0.009532
C     0.185580    1.426809   -0.112240    0.027667   -0.615923    0.045479
O    -2.424404   -1.053547    0.141169   -0.685240   -0.295058    0.039995
O     0.240353    2.647240   -0.204710    0.018661    0.371320   -0.028189
H     1.922616   -1.545424    0.067591    0.085615    0.041720   -0.005511
H    -0.283402   -2.349496    0.186263    0.861819   -0.173250   -0.006694
H    -1.883441    1.377385   -0.056304    0.198873    0.388834   -0.033774
H     2.325711    0.936406   -0.129663    0.118797   -0.203405    0.011884
