12
* (null), Energy   -1000.0000000
C     1.625816    0.316601   -0.065250    0.275839    0.183153    0.017056
C     1.413215   -1.019528    0.041288   -0.140194    0.194294   -0.080745
N     0.151412   -1.546563    0.113379    0.068653   -0.651054    0.054390
C    -1.001718   -0.778391    0.084609   -0.088692    0.101663    0.002905
N    -0.754728    0.578612   -0.023325   -0.268988    0.490268   -0.033198
C     0.489437    1.226278   -0.105125    0.146874   -0.095071    0.011165
O    -2.121379   -1.255957    0.147970    0.019143   -0.030794    0.000446
O     0.544888    2.445398   -0.199422   -0.067879   -0.184245    0.014650
H     2.227146   -1.747036    0.075476    0.417079    0.842784    0.367025
H     0.020614   -2.552189    0.190181    0.325550   -0.722956    0.002842
H    -1.580237    1.175741   -0.048115    0.109927    1.052275   -0.087309
H     2.630238    0.734097   -0.122298    0.395226   -0.100831   -0.225385
12
* Frequency(21)  994.1163
C     1.657163    0.337416   -0.063312    0.275839    0.183153    0.017056
C     1.397283   -0.997448    0.032112   -0.140194    0.194294   -0.080745
N     0.159214   -1.620552    0.119560    0.068653   -0.651054    0.054390
C    -1.011797   -0.766837    0.084939   -0.088692    0.101663    0.002905
N    -0.785297    0.634329   -0.027097   -0.268988    0.490268   -0.033198
C     0.506129    1.215474   -0.103856    0.146874   -0.095071    0.011165
O    -2.119204   -1.259456    0.148021    0.019143   -0.030794    0.000446
O     0.537174    2.424459   -0.197757   -0.067879   -0.184245    0.014650
H     2.274545   -1.651258    0.117186    0.417079    0.842784    0.367025
H     0.057611   -2.634349    0.190504    0.325550   -0.722956    0.002842
H    -1.567745    1.295327   -0.058038    0.109927    1.052275   -0.087309
H     2.675153    0.722638   -0.147911    0.395226   -0.100831   -0.225385
12
* Frequency(21)  994.1163
C     1.685114    0.355975   -0.061583    0.275839    0.183153    0.017056
C     1.383077   -0.977760    0.023930   -0.140194    0.194294   -0.080745
N     0.166171   -1.686523    0.125072    0.068653   -0.651054    0.054390
C    -1.020784   -0.756536    0.085234   -0.088692    0.101663    0.002905
N    -0.812554    0.684007   -0.030461   -0.268988    0.490268   -0.033198
C     0.521011    1.205841   -0.102725    0.146874   -0.095071    0.011165
O    -2.117264   -1.262577    0.148066    0.019143   -0.030794    0.000446
O     0.530296    2.405790   -0.196273   -0.067879   -0.184245    0.014650
H     2.316808   -1.565859    0.154377    0.417079    0.842784    0.367025
H     0.090599   -2.707606    0.190792    0.325550   -0.722956    0.002842
H    -1.556606    1.401954   -0.066885    0.109927    1.052275   -0.087309
H     2.715201    0.712421   -0.170750    0.395226   -0.100831   -0.225385
12
* Frequency(21)  994.1163
C     1.706639    0.370267   -0.060252    0.275839    0.183153    0.017056
C     1.372137   -0.962599    0.017629   -0.140194    0.194294   -0.080745
N     0.171528   -1.737328    0.129316    0.068653   -0.651054    0.054390
C    -1.027705   -0.748603    0.085461   -0.088692    0.101663    0.002905
N    -0.833544    0.722265   -0.033052   -0.268988    0.490268   -0.033198
C     0.532472    1.198422   -0.101854    0.146874   -0.095071    0.011165
O    -2.115770   -1.264980    0.148101    0.019143   -0.030794    0.000446
O     0.524999    2.391413   -0.195129   -0.067879   -0.184245    0.014650
H     2.349354   -1.500094    0.183017    0.417079    0.842784    0.367025
H     0.116003   -2.764021    0.191014    0.325550   -0.722956    0.002842
H    -1.548028    1.484067   -0.073698    0.109927    1.052275   -0.087309
H     2.746042    0.704553   -0.188337    0.395226   -0.100831   -0.225385
12
* Frequency(21)  994.1163
C     1.719405    0.378744   -0.059463    0.275839    0.183153    0.017056
C     1.365649   -0.953607    0.013892   -0.140194    0.194294   -0.080745
N     0.174705   -1.767460    0.131833    0.068653   -0.651054    0.054390
C    -1.031810   -0.743897    0.085595   -0.088692    0.101663    0.002905
N    -0.845993    0.744955   -0.034588   -0.268988    0.490268   -0.033198
C     0.539270    1.194022   -0.101337    0.146874   -0.095071    0.011165
O    -2.114884   -1.266405    0.148121    0.019143   -0.030794    0.000446
O     0.521857    2.382885   -0.194451   -0.067879   -0.184245    0.014650
H     2.368657   -1.461088    0.200003    0.417079    0.842784    0.367025
H     0.131070   -2.797481    0.191145    0.325550   -0.722956    0.002842
H    -1.542940    1.532768   -0.077739    0.109927    1.052275   -0.087309
H     2.764334    0.699886   -0.198768    0.395226   -0.100831   -0.225385
12
* Frequency(21)  994.1163
C     1.722029    0.380486   -0.059301    0.275839    0.183153    0.017056
C     1.364315   -0.951758    0.013124   -0.140194    0.194294   -0.080745
N     0.175358   -1.773654    0.132351    0.068653   -0.651054    0.054390
C    -1.032654   -0.742930    0.085623   -0.088692    0.101663    0.002905
N    -0.848553    0.749620   -0.034904   -0.268988    0.490268   -0.033198
C     0.540667    1.193117   -0.101231    0.146874   -0.095071    0.011165
O    -2.114702   -1.266698    0.148126    0.019143   -0.030794    0.000446
O     0.521211    2.381132   -0.194312   -0.067879   -0.184245    0.014650
H     2.372625   -1.453070    0.203495    0.417079    0.842784    0.367025
H     0.134168   -2.804359    0.191172    0.325550   -0.722956    0.002842
H    -1.541894    1.542780   -0.078569    0.109927    1.052275   -0.087309
H     2.768094    0.698927   -0.200913    0.395226   -0.100831   -0.225385
12
* Frequency(21)  994.1163
C     1.714228    0.375306   -0.059783    0.275839    0.183153    0.017056
C     1.368280   -0.957253    0.015407   -0.140194    0.194294   -0.080745
N     0.173417   -1.755240    0.130812    0.068653   -0.651054    0.054390
C    -1.030145   -0.745806    0.085540   -0.088692    0.101663    0.002905
N    -0.840945    0.735753   -0.033965   -0.268988    0.490268   -0.033198
C     0.536513    1.195806   -0.101546    0.146874   -0.095071    0.011165
O    -2.115244   -1.265827    0.148113    0.019143   -0.030794    0.000446
O     0.523131    2.386344   -0.194726   -0.067879   -0.184245    0.014650
H     2.360829   -1.476907    0.193115    0.417079    0.842784    0.367025
H     0.124960   -2.783911    0.191092    0.325550   -0.722956    0.002842
H    -1.545004    1.513017   -0.076100    0.109927    1.052275   -0.087309
H     2.756916    0.701779   -0.194538    0.395226   -0.100831   -0.225385
12
* Frequency(21)  994.1163
C     1.696845    0.363764   -0.060858    0.275839    0.183153    0.017056
C     1.377115   -0.969497    0.020496   -0.140194    0.194294   -0.080745
N     0.169090   -1.714212    0.127385    0.068653   -0.651054    0.054390
C    -1.024556   -0.752212    0.085357   -0.088692    0.101663    0.002905
N    -0.823994    0.704858   -0.031873   -0.268988    0.490268   -0.033198
C     0.527258    1.201797   -0.102250    0.146874   -0.095071    0.011165
O    -2.116450   -1.263886    0.148085    0.019143   -0.030794    0.000446
O     0.527409    2.397954   -0.195650   -0.067879   -0.184245    0.014650
H     2.334546   -1.530017    0.169986    0.417079    0.842784    0.367025
H     0.104445   -2.738353    0.190913    0.325550   -0.722956    0.002842
H    -1.551931    1.446706   -0.070598    0.109927    1.052275   -0.087309
H     2.732010    0.708133   -0.180335    0.395226   -0.100831   -0.225385
12
* Frequency(21)  994.1163
C     1.671765    0.347111   -0.062409    0.275839    0.183153    0.017056
C     1.389861   -0.987163    0.027837   -0.140194    0.194294   -0.080745
N     0.162848   -1.655017    0.122439    0.068653   -0.651054    0.054390
C    -1.016492   -0.761455    0.085093   -0.088692    0.101663    0.002905
N    -0.799537    0.660282   -0.028855   -0.268988    0.490268   -0.033198
C     0.513904    1.210441   -0.103265    0.146874   -0.095071    0.011165
O    -2.118190   -1.261086    0.148044    0.019143   -0.030794    0.000446
O     0.533580    2.414706   -0.196982   -0.067879   -0.184245    0.014650
H     2.296624   -1.606644    0.136615    0.417079    0.842784    0.367025
H     0.074845   -2.672620    0.190654    0.325550   -0.722956    0.002842
H    -1.561926    1.351031   -0.062659    0.109927    1.052275   -0.087309
H     2.696075    0.717300   -0.159843    0.395226   -0.100831   -0.225385
12
* Frequency(21)  994.1163
C     1.641706    0.327153   -0.064268    0.275839    0.183153    0.017056
C     1.405139   -1.008336    0.036636   -0.140194    0.194294   -0.080745
N     0.155367   -1.584069    0.116512    0.068653   -0.651054    0.054390
C    -1.006827   -0.772534    0.084777   -0.088692    0.101663    0.002905
N    -0.770224    0.606856   -0.025237   -0.268988    0.490268   -0.033198
C     0.497898    1.220802   -0.104482    0.146874   -0.095071    0.011165
O    -2.120277   -1.257731    0.147996    0.019143   -0.030794    0.000446
O     0.540977    2.434784   -0.198578   -0.067879   -0.184245    0.014650
H     2.251173   -1.698485    0.096619    0.417079    0.842784    0.367025
H     0.039369   -2.593837    0.190345    0.325550   -0.722956    0.002842
H    -1.573905    1.236361   -0.053145    0.109927    1.052275   -0.087309
H     2.653006    0.728288   -0.135282    0.395226   -0.100831   -0.225385
12
* Frequency(21)  994.1163
C     1.609925    0.306050   -0.066233    0.275839    0.183153    0.017056
C     1.421291   -1.030721    0.045940   -0.140194    0.194294   -0.080745
N     0.147457   -1.509057    0.110246    0.068653   -0.651054    0.054390
C    -0.996608   -0.784247    0.084442   -0.088692    0.101663    0.002905
N    -0.739232    0.550369   -0.021412   -0.268988    0.490268   -0.033198
C     0.480976    1.231755   -0.105768    0.146874   -0.095071    0.011165
O    -2.122482   -1.254183    0.147945    0.019143   -0.030794    0.000446
O     0.548798    2.456012   -0.200266   -0.067879   -0.184245    0.014650
H     2.203119   -1.795587    0.054332    0.417079    0.842784    0.367025
H     0.001860   -2.510541    0.190017    0.325550   -0.722956    0.002842
H    -1.586570    1.115122   -0.043086    0.109927    1.052275   -0.087309
H     2.607469    0.739906   -0.109314    0.395226   -0.100831   -0.225385
12
* Frequency(21)  994.1163
C     1.579866    0.286092   -0.068091    0.275839    0.183153    0.017056
C     1.436569   -1.051894    0.054739   -0.140194    0.194294   -0.080745
N     0.139976   -1.438110    0.104319    0.068653   -0.651054    0.054390
C    -0.986943   -0.795326    0.084125   -0.088692    0.101663    0.002905
N    -0.709920    0.496942   -0.017794   -0.268988    0.490268   -0.033198
C     0.464971    1.242115   -0.106985    0.146874   -0.095071    0.011165
O    -2.124568   -1.250827    0.147896    0.019143   -0.030794    0.000446
O     0.556195    2.476090   -0.201862   -0.067879   -0.184245    0.014650
H     2.157669   -1.887429    0.014336    0.417079    0.842784    0.367025
H    -0.033616   -2.431758    0.189707    0.325550   -0.722956    0.002842
H    -1.598549    1.000452   -0.033571    0.109927    1.052275   -0.087309
H     2.564400    0.750894   -0.084753    0.395226   -0.100831   -0.225385
12
* Frequency(21)  994.1163
C     1.554786    0.269439   -0.069642    0.275839    0.183153    0.017056
C     1.449316   -1.069560    0.062080   -0.140194    0.194294   -0.080745
N     0.133734   -1.378915    0.099373    0.068653   -0.651054    0.054390
C    -0.978879   -0.804569    0.083861   -0.088692    0.101663    0.002905
N    -0.685463    0.452366   -0.014776   -0.268988    0.490268   -0.033198
C     0.451617    1.250759   -0.108000    0.146874   -0.095071    0.011165
O    -2.126309   -1.248027    0.147855    0.019143   -0.030794    0.000446
O     0.562367    2.492842   -0.203194   -0.067879   -0.184245    0.014650
H     2.119747   -1.964056   -0.019035    0.417079    0.842784    0.367025
H    -0.063216   -2.366026    0.189449    0.325550   -0.722956    0.002842
H    -1.608544    0.904777   -0.025633    0.109927    1.052275   -0.087309
H     2.528466    0.760062   -0.064260    0.395226   -0.100831   -0.225385
12
* Frequency(21)  994.1163
C     1.537403    0.257897   -0.070717    0.275839    0.183153    0.017056
C     1.458150   -1.081804    0.067169   -0.140194    0.194294   -0.080745
N     0.129407   -1.337887    0.095946    0.068653   -0.651054    0.054390
C    -0.973290   -0.810976    0.083678   -0.088692    0.101663    0.002905
N    -0.668512    0.421471   -0.012684   -0.268988    0.490268   -0.033198
C     0.442361    1.256750   -0.108703    0.146874   -0.095071    0.011165
O    -2.127515   -1.246087    0.147827    0.019143   -0.030794    0.000446
O     0.566644    2.504452   -0.204118   -0.067879   -0.184245    0.014650
H     2.093464   -2.017166   -0.042163    0.417079    0.842784    0.367025
H    -0.083731   -2.320467    0.189270    0.325550   -0.722956    0.002842
H    -1.615471    0.838465   -0.020131    0.109927    1.052275   -0.087309
H     2.503559    0.766416   -0.050057    0.395226   -0.100831   -0.225385
12
* Frequency(21)  994.1163
C     1.529602    0.252717   -0.071199    0.275839    0.183153    0.017056
C     1.462115   -1.087299    0.069452   -0.140194    0.194294   -0.080745
N     0.127466   -1.319473    0.094407    0.068653   -0.651054    0.054390
C    -0.970782   -0.813851    0.083596   -0.088692    0.101663    0.002905
N    -0.660904    0.407604   -0.011745   -0.268988    0.490268   -0.033198
C     0.438207    1.259439   -0.109019    0.146874   -0.095071    0.011165
O    -2.128057   -1.245216    0.147815    0.019143   -0.030794    0.000446
O     0.568564    2.509664   -0.204532   -0.067879   -0.184245    0.014650
H     2.081667   -2.041003   -0.052544    0.417079    0.842784    0.367025
H    -0.092939   -2.300019    0.189190    0.325550   -0.722956    0.002842
H    -1.618580    0.808703   -0.017662    0.109927    1.052275   -0.087309
H     2.492381    0.769268   -0.043682    0.395226   -0.100831   -0.225385
12
* Frequency(21)  994.1163
C     1.532226    0.254459   -0.071037    0.275839    0.183153    0.017056
C     1.460782   -1.085450    0.068684   -0.140194    0.194294   -0.080745
N     0.128119   -1.325667    0.094925    0.068653   -0.651054    0.054390
C    -0.971625   -0.812884    0.083624   -0.088692    0.101663    0.002905
N    -0.663463    0.412269   -0.012061   -0.268988    0.490268   -0.033198
C     0.439605    1.258535   -0.108913    0.146874   -0.095071    0.011165
O    -2.127875   -1.245509    0.147819    0.019143   -0.030794    0.000446
O     0.567918    2.507911   -0.204392   -0.067879   -0.184245    0.014650
H     2.085635   -2.032984   -0.049052    0.417079    0.842784    0.367025
H    -0.089842   -2.306897    0.189217    0.325550   -0.722956    0.002842
H    -1.617535    0.818715   -0.018492    0.109927    1.052275   -0.087309
H     2.496141    0.768308   -0.045827    0.395226   -0.100831   -0.225385
12
* Frequency(21)  994.1163
C     1.544992    0.262936   -0.070248    0.275839    0.183153    0.017056
C     1.454293   -1.076458    0.064947   -0.140194    0.194294   -0.080745
N     0.131296   -1.355799    0.097442    0.068653   -0.651054    0.054390
C    -0.975730   -0.808179    0.083758   -0.088692    0.101663    0.002905
N    -0.675913    0.434959   -0.013597   -0.268988    0.490268   -0.033198
C     0.446402    1.254135   -0.108396    0.146874   -0.095071    0.011165
O    -2.126989   -1.246934    0.147840    0.019143   -0.030794    0.000446
O     0.564777    2.499383   -0.203714   -0.067879   -0.184245    0.014650
H     2.104939   -1.993979   -0.032066    0.417079    0.842784    0.367025
H    -0.074774   -2.340357    0.189348    0.325550   -0.722956    0.002842
H    -1.612447    0.867416   -0.022533    0.109927    1.052275   -0.087309
H     2.514433    0.763642   -0.056258    0.395226   -0.100831   -0.225385
12
* Frequency(21)  994.1163
C     1.566517    0.277228   -0.068917    0.275839    0.183153    0.017056
C     1.443353   -1.061297    0.058646   -0.140194    0.194294   -0.080745
N     0.136654   -1.406603    0.101686    0.068653   -0.651054    0.054390
C    -0.982651   -0.800246    0.083985   -0.088692    0.101663    0.002905
N    -0.696903    0.473217   -0.016188   -0.268988    0.490268   -0.033198
C     0.457863    1.246716   -0.107525    0.146874   -0.095071    0.011165
O    -2.125495   -1.249337    0.147874    0.019143   -0.030794    0.000446
O     0.559480    2.485006   -0.202571   -0.067879   -0.184245    0.014650
H     2.137485   -1.928213   -0.003425    0.417079    0.842784    0.367025
H    -0.049371   -2.396772    0.189570    0.325550   -0.722956    0.002842
H    -1.603869    0.949529   -0.029346    0.109927    1.052275   -0.087309
H     2.545274    0.755773   -0.073846    0.395226   -0.100831   -0.225385
12
* Frequency(21)  994.1163
C     1.594468    0.295787   -0.067188    0.275839    0.183153    0.017056
C     1.429147   -1.041609    0.050464   -0.140194    0.194294   -0.080745
N     0.143610   -1.472574    0.107198    0.068653   -0.651054    0.054390
C    -0.991638   -0.789944    0.084279   -0.088692    0.101663    0.002905
N    -0.724159    0.522896   -0.019552   -0.268988    0.490268   -0.033198
C     0.472746    1.237083   -0.106394    0.146874   -0.095071    0.011165
O    -2.123555   -1.252457    0.147920    0.019143   -0.030794    0.000446
O     0.552602    2.466336   -0.201087   -0.067879   -0.184245    0.014650
H     2.179747   -1.842814    0.033765    0.417079    0.842784    0.367025
H    -0.016383   -2.470029    0.189858    0.325550   -0.722956    0.002842
H    -1.592730    1.056156   -0.038193    0.109927    1.052275   -0.087309
H     2.585322    0.745556   -0.096684    0.395226   -0.100831   -0.225385
12
* Frequency(21)  994.1163
C     1.625816    0.316601   -0.065250    0.275839    0.183153    0.017056
C     1.413215   -1.019528    0.041288   -0.140194    0.194294   -0.080745
N     0.151412   -1.546563    0.113379    0.068653   -0.651054    0.054390
C    -1.001718   -0.778391    0.084609   -0.088692    0.101663    0.002905
N    -0.754728    0.578612   -0.023325   -0.268988    0.490268   -0.033198
C     0.489437    1.226278   -0.105125    0.146874   -0.095071    0.011165
O    -2.121379   -1.255957    0.147970    0.019143   -0.030794    0.000446
O     0.544888    2.445398   -0.199422   -0.067879   -0.184245    0.014650
H     2.227146   -1.747036    0.075476    0.417079    0.842784    0.367025
H     0.020614   -2.552189    0.190181    0.325550   -0.722956    0.002842
H    -1.580237    1.175741   -0.048115    0.109927    1.052275   -0.087309
H     2.630238    0.734097   -0.122298    0.395226   -0.100831   -0.225385
