12
* (null), Energy   -1000.0000000
C     1.321514    0.518496   -0.072777    0.187061    0.165469   -0.016745
C     1.109175   -0.817930    0.032797    0.129639   -0.079604    0.001913
N    -0.152373   -1.344381    0.103578   -0.257100   -0.143940    0.017740
C    -1.303319   -0.575774    0.076278    0.026731   -0.004261   -0.000158
N    -1.058010    0.780216   -0.032013    0.084669    0.005158   -0.002582
C     0.185580    1.426809   -0.112240   -0.113245   -0.002059    0.003061
O    -2.424404   -1.053547    0.141169    0.046526   -0.020166    0.000210
O     0.240353    2.647240   -0.204710    0.019448    0.019975   -0.002022
H     1.922616   -1.545424    0.067591   -0.231256   -0.512559    0.047954
H    -0.283402   -2.349496    0.186263   -0.829565   -0.085742    0.024670
H    -1.883441    1.377385   -0.056304    0.059322   -0.035623    0.001056
H     2.325711    0.936406   -0.129663   -0.392413    1.617613   -0.113396
12
* Frequency(22) 1089.3461
C     1.342772    0.537301   -0.074680    0.187061    0.165469   -0.016745
C     1.123908   -0.826977    0.033015    0.129639   -0.079604    0.001913
N    -0.181591   -1.360739    0.105594   -0.257100   -0.143940    0.017740
C    -1.300281   -0.576258    0.076260    0.026731   -0.004261   -0.000158
N    -1.048388    0.780803   -0.032306    0.084669    0.005158   -0.002582
C     0.172710    1.426575   -0.111892   -0.113245   -0.002059    0.003061
O    -2.419117   -1.055838    0.141193    0.046526   -0.020166    0.000210
O     0.242564    2.649510   -0.204940    0.019448    0.019975   -0.002022
H     1.896335   -1.603674    0.073041   -0.231256   -0.512559    0.047954
H    -0.377677   -2.359241    0.189067   -0.829565   -0.085742    0.024670
H    -1.876699    1.373337   -0.056184    0.059322   -0.035623    0.001056
H     2.281115    1.120239   -0.142550   -0.392413    1.617613   -0.113396
12
* Frequency(22) 1089.3461
C     1.361727    0.554068   -0.076376    0.187061    0.165469   -0.016745
C     1.137044   -0.835043    0.033208    0.129639   -0.079604    0.001913
N    -0.207643   -1.375325    0.107392   -0.257100   -0.143940    0.017740
C    -1.297573   -0.576690    0.076244    0.026731   -0.004261   -0.000158
N    -1.039809    0.781325   -0.032568    0.084669    0.005158   -0.002582
C     0.161235    1.426366   -0.111581   -0.113245   -0.002059    0.003061
O    -2.414402   -1.057882    0.141214    0.046526   -0.020166    0.000210
O     0.244534    2.651534   -0.205145    0.019448    0.019975   -0.002022
H     1.872902   -1.655611    0.077900   -0.231256   -0.512559    0.047954
H    -0.461737   -2.367929    0.191567   -0.829565   -0.085742    0.024670
H    -1.870688    1.369727   -0.056077    0.059322   -0.035623    0.001056
H     2.241352    1.284152   -0.154040   -0.392413    1.617613   -0.113396
12
* Frequency(22) 1089.3461
C     1.376324    0.566980   -0.077683    0.187061    0.165469   -0.016745
C     1.147161   -0.841255    0.033358    0.129639   -0.079604    0.001913
N    -0.227706   -1.386557    0.108776   -0.257100   -0.143940    0.017740
C    -1.295487   -0.577022    0.076232    0.026731   -0.004261   -0.000158
N    -1.033201    0.781728   -0.032769    0.084669    0.005158   -0.002582
C     0.152398    1.426205   -0.111343   -0.113245   -0.002059    0.003061
O    -2.410772   -1.059455    0.141230    0.046526   -0.020166    0.000210
O     0.246052    2.653093   -0.205303    0.019448    0.019975   -0.002022
H     1.854856   -1.695608    0.081642   -0.231256   -0.512559    0.047954
H    -0.526471   -2.374620    0.193492   -0.829565   -0.085742    0.024670
H    -1.866059    1.366947   -0.055995    0.059322   -0.035623    0.001056
H     2.210731    1.410380   -0.162889   -0.392413    1.617613   -0.113396
12
* Frequency(22) 1089.3461
C     1.384982    0.574638   -0.078458    0.187061    0.165469   -0.016745
C     1.153161   -0.844939    0.033446    0.129639   -0.079604    0.001913
N    -0.239605   -1.393219    0.109597   -0.257100   -0.143940    0.017740
C    -1.294249   -0.577220    0.076225    0.026731   -0.004261   -0.000158
N    -1.029283    0.781966   -0.032889    0.084669    0.005158   -0.002582
C     0.147157    1.426110   -0.111201   -0.113245   -0.002059    0.003061
O    -2.408619   -1.060389    0.141240    0.046526   -0.020166    0.000210
O     0.246952    2.654017   -0.205396    0.019448    0.019975   -0.002022
H     1.844153   -1.719330    0.083861   -0.231256   -0.512559    0.047954
H    -0.564865   -2.378588    0.194634   -0.829565   -0.085742    0.024670
H    -1.863313    1.365299   -0.055946    0.059322   -0.035623    0.001056
H     2.192569    1.485246   -0.168137   -0.392413    1.617613   -0.113396
12
* Frequency(22) 1089.3461
C     1.386762    0.576213   -0.078617    0.187061    0.165469   -0.016745
C     1.154394   -0.845696    0.033464    0.129639   -0.079604    0.001913
N    -0.242051   -1.394588    0.109766   -0.257100   -0.143940    0.017740
C    -1.293995   -0.577260    0.076223    0.026731   -0.004261   -0.000158
N    -1.028477    0.782015   -0.032913    0.084669    0.005158   -0.002582
C     0.146080    1.426090   -0.111172   -0.113245   -0.002059    0.003061
O    -2.408176   -1.060581    0.141242    0.046526   -0.020166    0.000210
O     0.247137    2.654207   -0.205416    0.019448    0.019975   -0.002022
H     1.841953   -1.724207    0.084317   -0.231256   -0.512559    0.047954
H    -0.572758   -2.379404    0.194868   -0.829565   -0.085742    0.024670
H    -1.862749    1.364960   -0.055936    0.059322   -0.035623    0.001056
H     2.188835    1.500637   -0.169216   -0.392413    1.617613   -0.113396
12
* Frequency(22) 1089.3461
C     1.381471    0.571533   -0.078144    0.187061    0.165469   -0.016745
C     1.150727   -0.843445    0.033410    0.129639   -0.079604    0.001913
N    -0.234779   -1.390517    0.109264   -0.257100   -0.143940    0.017740
C    -1.294751   -0.577140    0.076228    0.026731   -0.004261   -0.000158
N    -1.030872    0.781870   -0.032840    0.084669    0.005158   -0.002582
C     0.149283    1.426149   -0.111258   -0.113245   -0.002059    0.003061
O    -2.409492   -1.060010    0.141236    0.046526   -0.020166    0.000210
O     0.246587    2.653642   -0.205358    0.019448    0.019975   -0.002022
H     1.848494   -1.709710    0.082961   -0.231256   -0.512559    0.047954
H    -0.549294   -2.376979    0.194170   -0.829565   -0.085742    0.024670
H    -1.864427    1.365967   -0.055966    0.059322   -0.035623    0.001056
H     2.199934    1.454884   -0.166009   -0.392413    1.617613   -0.113396
12
* Frequency(22) 1089.3461
C     1.369683    0.561105   -0.077089    0.187061    0.165469   -0.016745
C     1.142558   -0.838428    0.033290    0.129639   -0.079604    0.001913
N    -0.218577   -1.381446    0.108146   -0.257100   -0.143940    0.017740
C    -1.296436   -0.576871    0.076238    0.026731   -0.004261   -0.000158
N    -1.036208    0.781545   -0.032677    0.084669    0.005158   -0.002582
C     0.156419    1.426278   -0.111451   -0.113245   -0.002059    0.003061
O    -2.412424   -1.058739    0.141223    0.046526   -0.020166    0.000210
O     0.245361    2.652383   -0.205231    0.019448    0.019975   -0.002022
H     1.863067   -1.677410    0.079939   -0.231256   -0.512559    0.047954
H    -0.497017   -2.371575    0.192616   -0.829565   -0.085742    0.024670
H    -1.868165    1.368212   -0.056033    0.059322   -0.035623    0.001056
H     2.224663    1.352947   -0.158863   -0.392413    1.617613   -0.113396
12
* Frequency(22) 1089.3461
C     1.352675    0.546060   -0.075566    0.187061    0.165469   -0.016745
C     1.130771   -0.831191    0.033116    0.129639   -0.079604    0.001913
N    -0.195202   -1.368359    0.106533   -0.257100   -0.143940    0.017740
C    -1.298866   -0.576484    0.076252    0.026731   -0.004261   -0.000158
N    -1.043906    0.781076   -0.032443    0.084669    0.005158   -0.002582
C     0.166715    1.426466   -0.111730   -0.113245   -0.002059    0.003061
O    -2.416654   -1.056906    0.141204    0.046526   -0.020166    0.000210
O     0.243593    2.650567   -0.205047    0.019448    0.019975   -0.002022
H     1.884093   -1.630807    0.075579   -0.231256   -0.512559    0.047954
H    -0.421592   -2.363780    0.190373   -0.829565   -0.085742    0.024670
H    -1.873559    1.371451   -0.056129    0.059322   -0.035623    0.001056
H     2.260342    1.205871   -0.148553   -0.392413    1.617613   -0.113396
12
* Frequency(22) 1089.3461
C     1.332290    0.528029   -0.073741    0.187061    0.165469   -0.016745
C     1.116644   -0.822516    0.032907    0.129639   -0.079604    0.001913
N    -0.167184   -1.352673    0.104600   -0.257100   -0.143940    0.017740
C    -1.301779   -0.576019    0.076269    0.026731   -0.004261   -0.000158
N    -1.053133    0.780514   -0.032161    0.084669    0.005158   -0.002582
C     0.179056    1.426690   -0.112063   -0.113245   -0.002059    0.003061
O    -2.421724   -1.054708    0.141181    0.046526   -0.020166    0.000210
O     0.241474    2.648391   -0.204827    0.019448    0.019975   -0.002022
H     1.909294   -1.574952    0.070353   -0.231256   -0.512559    0.047954
H    -0.331191   -2.354436    0.187684   -0.829565   -0.085742    0.024670
H    -1.880023    1.375333   -0.056244    0.059322   -0.035623    0.001056
H     2.303105    1.029594   -0.136196   -0.392413    1.617613   -0.113396
12
* Frequency(22) 1089.3461
C     1.310738    0.508964   -0.071812    0.187061    0.165469   -0.016745
C     1.101707   -0.813344    0.032687    0.129639   -0.079604    0.001913
N    -0.137562   -1.336089    0.102556   -0.257100   -0.143940    0.017740
C    -1.304859   -0.575529    0.076287    0.026731   -0.004261   -0.000158
N    -1.062888    0.779919   -0.031864    0.084669    0.005158   -0.002582
C     0.192104    1.426927   -0.112416   -0.113245   -0.002059    0.003061
O    -2.427085   -1.052385    0.141157    0.046526   -0.020166    0.000210
O     0.239233    2.646089   -0.204594    0.019448    0.019975   -0.002022
H     1.935938   -1.515896    0.064828   -0.231256   -0.512559    0.047954
H    -0.235612   -2.344557    0.184842   -0.829565   -0.085742    0.024670
H    -1.886858    1.379437   -0.056365    0.059322   -0.035623    0.001056
H     2.348317    0.843219   -0.123131   -0.392413    1.617613   -0.113396
12
* Frequency(22) 1089.3461
C     1.290353    0.490932   -0.069987    0.187061    0.165469   -0.016745
C     1.087580   -0.804669    0.032479    0.129639   -0.079604    0.001913
N    -0.109545   -1.320403    0.100623   -0.257100   -0.143940    0.017740
C    -1.307772   -0.575064    0.076305    0.026731   -0.004261   -0.000158
N    -1.072114    0.779357   -0.031583    0.084669    0.005158   -0.002582
C     0.204444    1.427151   -0.112750   -0.113245   -0.002059    0.003061
O    -2.432155   -1.050187    0.141134    0.046526   -0.020166    0.000210
O     0.237114    2.643912   -0.204373    0.019448    0.019975   -0.002022
H     1.961139   -1.460041    0.059603   -0.231256   -0.512559    0.047954
H    -0.145211   -2.335213    0.182154   -0.829565   -0.085742    0.024670
H    -1.893323    1.383319   -0.056480    0.059322   -0.035623    0.001056
H     2.391080    0.666942   -0.110774   -0.392413    1.617613   -0.113396
12
* Frequency(22) 1089.3461
C     1.273345    0.475887   -0.068465    0.187061    0.165469   -0.016745
C     1.075793   -0.797432    0.032305    0.129639   -0.079604    0.001913
N    -0.086169   -1.307316    0.099010   -0.257100   -0.143940    0.017740
C    -1.310203   -0.574677    0.076319    0.026731   -0.004261   -0.000158
N    -1.079813    0.778888   -0.031348    0.084669    0.005158   -0.002582
C     0.214741    1.427339   -0.113028   -0.113245   -0.002059    0.003061
O    -2.436385   -1.048354    0.141115    0.046526   -0.020166    0.000210
O     0.235345    2.642096   -0.204189    0.019448    0.019975   -0.002022
H     1.982165   -1.413438    0.055243   -0.231256   -0.512559    0.047954
H    -0.069786   -2.327418    0.179911   -0.829565   -0.085742    0.024670
H    -1.898716    1.386558   -0.056576    0.059322   -0.035623    0.001056
H     2.426758    0.519865   -0.100463   -0.392413    1.617613   -0.113396
12
* Frequency(22) 1089.3461
C     1.261557    0.465460   -0.067410    0.187061    0.165469   -0.016745
C     1.067623   -0.792415    0.032184    0.129639   -0.079604    0.001913
N    -0.069968   -1.298245    0.097892   -0.257100   -0.143940    0.017740
C    -1.311887   -0.574408    0.076329    0.026731   -0.004261   -0.000158
N    -1.085148    0.778563   -0.031185    0.084669    0.005158   -0.002582
C     0.221877    1.427468   -0.113221   -0.113245   -0.002059    0.003061
O    -2.439317   -1.047083    0.141102    0.046526   -0.020166    0.000210
O     0.234120    2.640838   -0.204062    0.019448    0.019975   -0.002022
H     1.996739   -1.381138    0.052221   -0.231256   -0.512559    0.047954
H    -0.017509   -2.322014    0.178356   -0.829565   -0.085742    0.024670
H    -1.902455    1.388803   -0.056643    0.059322   -0.035623    0.001056
H     2.451487    0.417928   -0.093317   -0.392413    1.617613   -0.113396
12
* Frequency(22) 1089.3461
C     1.256266    0.460780   -0.066936    0.187061    0.165469   -0.016745
C     1.063956   -0.790164    0.032130    0.129639   -0.079604    0.001913
N    -0.062696   -1.294174    0.097391   -0.257100   -0.143940    0.017740
C    -1.312643   -0.574288    0.076333    0.026731   -0.004261   -0.000158
N    -1.087543    0.778417   -0.031112    0.084669    0.005158   -0.002582
C     0.225080    1.427527   -0.113307   -0.113245   -0.002059    0.003061
O    -2.440633   -1.046513    0.141096    0.046526   -0.020166    0.000210
O     0.233570    2.640273   -0.204005    0.019448    0.019975   -0.002022
H     2.003279   -1.366641    0.050865   -0.231256   -0.512559    0.047954
H     0.005955   -2.319589    0.177658   -0.829565   -0.085742    0.024670
H    -1.904132    1.389810   -0.056673    0.059322   -0.035623    0.001056
H     2.462586    0.372175   -0.090110   -0.392413    1.617613   -0.113396
12
* Frequency(22) 1089.3461
C     1.258046    0.462354   -0.067095    0.187061    0.165469   -0.016745
C     1.065190   -0.790921    0.032148    0.129639   -0.079604    0.001913
N    -0.065142   -1.295544    0.097560   -0.257100   -0.143940    0.017740
C    -1.312389   -0.574328    0.076332    0.026731   -0.004261   -0.000158
N    -1.086737    0.778466   -0.031137    0.084669    0.005158   -0.002582
C     0.224003    1.427507   -0.113278   -0.113245   -0.002059    0.003061
O    -2.440190   -1.046705    0.141098    0.046526   -0.020166    0.000210
O     0.233755    2.640463   -0.204024    0.019448    0.019975   -0.002022
H     2.001079   -1.371518    0.051321   -0.231256   -0.512559    0.047954
H    -0.001938   -2.320405    0.177893   -0.829565   -0.085742    0.024670
H    -1.903568    1.389472   -0.056663    0.059322   -0.035623    0.001056
H     2.458853    0.387566   -0.091189   -0.392413    1.617613   -0.113396
12
* Frequency(22) 1089.3461
C     1.266703    0.470012   -0.067870    0.187061    0.165469   -0.016745
C     1.071190   -0.794605    0.032237    0.129639   -0.079604    0.001913
N    -0.077041   -1.302206    0.098381   -0.257100   -0.143940    0.017740
C    -1.311152   -0.574526    0.076325    0.026731   -0.004261   -0.000158
N    -1.082819    0.778705   -0.031256    0.084669    0.005158   -0.002582
C     0.218762    1.427412   -0.113137   -0.113245   -0.002059    0.003061
O    -2.438037   -1.047638    0.141107    0.046526   -0.020166    0.000210
O     0.234655    2.641387   -0.204118    0.019448    0.019975   -0.002022
H     1.990376   -1.395240    0.053540   -0.231256   -0.512559    0.047954
H    -0.040332   -2.324373    0.179035   -0.829565   -0.085742    0.024670
H    -1.900822    1.387823   -0.056614    0.059322   -0.035623    0.001056
H     2.440691    0.462432   -0.096437   -0.392413    1.617613   -0.113396
12
* Frequency(22) 1089.3461
C     1.281300    0.482925   -0.069177    0.187061    0.165469   -0.016745
C     1.081306   -0.800817    0.032386    0.129639   -0.079604    0.001913
N    -0.097104   -1.313438    0.099765   -0.257100   -0.143940    0.017740
C    -1.309066   -0.574858    0.076312    0.026731   -0.004261   -0.000158
N    -1.076212    0.779108   -0.031458    0.084669    0.005158   -0.002582
C     0.209925    1.427251   -0.112898   -0.113245   -0.002059    0.003061
O    -2.434406   -1.049212    0.141124    0.046526   -0.020166    0.000210
O     0.236173    2.642946   -0.204275    0.019448    0.019975   -0.002022
H     1.972330   -1.435237    0.057282   -0.231256   -0.512559    0.047954
H    -0.105066   -2.331064    0.180960   -0.829565   -0.085742    0.024670
H    -1.896193    1.385043   -0.056531    0.059322   -0.035623    0.001056
H     2.410069    0.588661   -0.105286   -0.392413    1.617613   -0.113396
12
* Frequency(22) 1089.3461
C     1.300255    0.499692   -0.070874    0.187061    0.165469   -0.016745
C     1.094442   -0.808883    0.032580    0.129639   -0.079604    0.001913
N    -0.123155   -1.328023    0.101562   -0.257100   -0.143940    0.017740
C    -1.306357   -0.575290    0.076296    0.026731   -0.004261   -0.000158
N    -1.067632    0.779630   -0.031719    0.084669    0.005158   -0.002582
C     0.198450    1.427042   -0.112588   -0.113245   -0.002059    0.003061
O    -2.429692   -1.051255    0.141145    0.046526   -0.020166    0.000210
O     0.238143    2.644970   -0.204480    0.019448    0.019975   -0.002022
H     1.948897   -1.487174    0.062141   -0.231256   -0.512559    0.047954
H    -0.189126   -2.339752    0.183460   -0.829565   -0.085742    0.024670
H    -1.890182    1.381433   -0.056424    0.059322   -0.035623    0.001056
H     2.370306    0.752573   -0.116776   -0.392413    1.617613   -0.113396
12
* Frequency(22) 1089.3461
C     1.321514    0.518496   -0.072777    0.187061    0.165469   -0.016745
C     1.109175   -0.817930    0.032797    0.129639   -0.079604    0.001913
N    -0.152373   -1.344381    0.103578   -0.257100   -0.143940    0.017740
C    -1.303319   -0.575774    0.076278    0.026731   -0.004261   -0.000158
N    -1.058010    0.780216   -0.032013    0.084669    0.005158   -0.002582
C     0.185580    1.426809   -0.112240   -0.113245   -0.002059    0.003061
O    -2.424404   -1.053547    0.141169    0.046526   -0.020166    0.000210
O     0.240353    2.647240   -0.204710    0.019448    0.019975   -0.002022
H     1.922616   -1.545424    0.067591   -0.231256   -0.512559    0.047954
H    -0.283402   -2.349496    0.186263   -0.829565   -0.085742    0.024670
H    -1.883441    1.377385   -0.056304    0.059322   -0.035623    0.001056
H     2.325711    0.936406   -0.129663   -0.392413    1.617613   -0.113396
