12
* (null), Energy   -1000.0000000
C     1.625816    0.316601   -0.065250   -0.084010    0.313379   -0.021593
C     1.413215   -1.019528    0.041288    0.074978   -0.040721    0.001436
N     0.151412   -1.546563    0.113379    0.168583   -0.127959    0.005045
C    -1.001718   -0.778391    0.084609   -0.109148    0.222433   -0.013725
N    -0.754728    0.578612   -0.023325   -0.070075   -0.254606    0.021315
C     0.489437    1.226278   -0.105125   -0.089800   -0.003320    0.002436
O    -2.121379   -1.255957    0.147970    0.037338    0.011206   -0.001779
O     0.544888    2.445398   -0.199422    0.050444    0.019521   -0.002678
H     2.227146   -1.747036    0.075476   -0.719344   -0.965138    0.089556
H     0.020614   -2.552189    0.190181   -0.632465   -0.039198    0.020865
H    -1.580237    1.175741   -0.048115    0.679458    0.766503   -0.080958
H     2.630238    0.734097   -0.122298    0.388465   -0.793596    0.049689
12
* Frequency(25) 1381.2796
C     1.616268    0.352215   -0.067704   -0.084010    0.313379   -0.021593
C     1.421736   -1.024156    0.041451    0.074978   -0.040721    0.001436
N     0.170571   -1.561105    0.113952    0.168583   -0.127959    0.005045
C    -1.014122   -0.753112    0.083050   -0.109148    0.222433   -0.013725
N    -0.762692    0.549678   -0.020902   -0.070075   -0.254606    0.021315
C     0.479232    1.225901   -0.104848   -0.089800   -0.003320    0.002436
O    -2.117136   -1.254683    0.147768    0.037338    0.011206   -0.001779
O     0.550621    2.447616   -0.199726    0.050444    0.019521   -0.002678
H     2.145397   -1.856719    0.085653   -0.719344   -0.965138    0.089556
H    -0.051262   -2.556644    0.192552   -0.632465   -0.039198    0.020865
H    -1.503021    1.262851   -0.057316    0.679458    0.766503   -0.080958
H     2.674385    0.643909   -0.116651    0.388465   -0.793596    0.049689
12
* Frequency(25) 1381.2796
C     1.607755    0.383970   -0.069892   -0.084010    0.313379   -0.021593
C     1.429333   -1.028282    0.041597    0.074978   -0.040721    0.001436
N     0.187653   -1.574071    0.114464    0.168583   -0.127959    0.005045
C    -1.025182   -0.730573    0.081659   -0.109148    0.222433   -0.013725
N    -0.769793    0.523878   -0.018742   -0.070075   -0.254606    0.021315
C     0.470132    1.225565   -0.104601   -0.089800   -0.003320    0.002436
O    -2.113353   -1.253548    0.147588    0.037338    0.011206   -0.001779
O     0.555732    2.449595   -0.199998    0.050444    0.019521   -0.002678
H     2.072506   -1.954516    0.094728   -0.719344   -0.965138    0.089556
H    -0.115350   -2.560616    0.194666   -0.632465   -0.039198    0.020865
H    -1.434171    1.340520   -0.065519    0.679458    0.766503   -0.080958
H     2.713748    0.563494   -0.111616    0.388465   -0.793596    0.049689
12
* Frequency(25) 1381.2796
C     1.601200    0.408424   -0.071577   -0.084010    0.313379   -0.021593
C     1.435184   -1.031460    0.041709    0.074978   -0.040721    0.001436
N     0.200808   -1.584056    0.114857    0.168583   -0.127959    0.005045
C    -1.033699   -0.713216    0.080588   -0.109148    0.222433   -0.013725
N    -0.775261    0.504011   -0.017079   -0.070075   -0.254606    0.021315
C     0.463125    1.225306   -0.104411   -0.089800   -0.003320    0.002436
O    -2.110439   -1.252673    0.147449    0.037338    0.011206   -0.001779
O     0.559668    2.451118   -0.200207    0.050444    0.019521   -0.002678
H     2.016373   -2.029830    0.101716   -0.719344   -0.965138    0.089556
H    -0.164703   -2.563674    0.196295   -0.632465   -0.039198    0.020865
H    -1.381151    1.400333   -0.071837    0.679458    0.766503   -0.080958
H     2.744061    0.501567   -0.107738    0.388465   -0.793596    0.049689
12
* Frequency(25) 1381.2796
C     1.597312    0.422928   -0.072576   -0.084010    0.313379   -0.021593
C     1.438654   -1.033345    0.041775    0.074978   -0.040721    0.001436
N     0.208611   -1.589979    0.115091    0.168583   -0.127959    0.005045
C    -1.038751   -0.702921    0.079953   -0.109148    0.222433   -0.013725
N    -0.778504    0.492227   -0.016093   -0.070075   -0.254606    0.021315
C     0.458969    1.225152   -0.104298   -0.089800   -0.003320    0.002436
O    -2.108711   -1.252155    0.147367    0.037338    0.011206   -0.001779
O     0.562003    2.452021   -0.200331    0.050444    0.019521   -0.002678
H     1.983080   -2.074498    0.105861   -0.719344   -0.965138    0.089556
H    -0.193975   -2.565489    0.197260   -0.632465   -0.039198    0.020865
H    -1.349704    1.435808   -0.075584    0.679458    0.766503   -0.080958
H     2.762040    0.464838   -0.105439    0.388465   -0.793596    0.049689
12
* Frequency(25) 1381.2796
C     1.596512    0.425910   -0.072782   -0.084010    0.313379   -0.021593
C     1.439368   -1.033732    0.041789    0.074978   -0.040721    0.001436
N     0.210215   -1.591196    0.115139    0.168583   -0.127959    0.005045
C    -1.039789   -0.700805    0.079822   -0.109148    0.222433   -0.013725
N    -0.779171    0.489804   -0.015890   -0.070075   -0.254606    0.021315
C     0.458114    1.225120   -0.104275   -0.089800   -0.003320    0.002436
O    -2.108356   -1.252048    0.147350    0.037338    0.011206   -0.001779
O     0.562483    2.452207   -0.200356    0.050444    0.019521   -0.002678
H     1.976236   -2.083681    0.106713   -0.719344   -0.965138    0.089556
H    -0.199992   -2.565862    0.197459   -0.632465   -0.039198    0.020865
H    -1.343239    1.443101   -0.076354    0.679458    0.766503   -0.080958
H     2.765736    0.457287   -0.104966    0.388465   -0.793596    0.049689
12
* Frequency(25) 1381.2796
C     1.598888    0.417046   -0.072171   -0.084010    0.313379   -0.021593
C     1.437247   -1.032580    0.041748    0.074978   -0.040721    0.001436
N     0.205447   -1.587577    0.114996    0.168583   -0.127959    0.005045
C    -1.036702   -0.707096    0.080210   -0.109148    0.222433   -0.013725
N    -0.777189    0.497006   -0.016493   -0.070075   -0.254606    0.021315
C     0.460654    1.225214   -0.104344   -0.089800   -0.003320    0.002436
O    -2.109412   -1.252365    0.147400    0.037338    0.011206   -0.001779
O     0.561056    2.451655   -0.200280    0.050444    0.019521   -0.002678
H     1.996582   -2.056383    0.104180   -0.719344   -0.965138    0.089556
H    -0.182104   -2.564753    0.196869   -0.632465   -0.039198    0.020865
H    -1.362457    1.421422   -0.074064    0.679458    0.766503   -0.080958
H     2.754749    0.479733   -0.106371    0.388465   -0.793596    0.049689
12
* Frequency(25) 1381.2796
C     1.604183    0.397298   -0.070810   -0.084010    0.313379   -0.021593
C     1.432522   -1.030014    0.041658    0.074978   -0.040721    0.001436
N     0.194823   -1.579513    0.114678    0.168583   -0.127959    0.005045
C    -1.029824   -0.721113    0.081075   -0.109148    0.222433   -0.013725
N    -0.772773    0.513050   -0.017836   -0.070075   -0.254606    0.021315
C     0.466313    1.225424   -0.104498   -0.089800   -0.003320    0.002436
O    -2.111765   -1.253071    0.147512    0.037338    0.011206   -0.001779
O     0.557877    2.450425   -0.200112    0.050444    0.019521   -0.002678
H     2.041913   -1.995562    0.098537   -0.719344   -0.965138    0.089556
H    -0.142248   -2.562283    0.195554   -0.632465   -0.039198    0.020865
H    -1.405275    1.373119   -0.068962    0.679458    0.766503   -0.080958
H     2.730269    0.529744   -0.109503    0.388465   -0.793596    0.049689
12
* Frequency(25) 1381.2796
C     1.611821    0.368805   -0.068847   -0.084010    0.313379   -0.021593
C     1.425705   -1.026312    0.041527    0.074978   -0.040721    0.001436
N     0.179495   -1.567879    0.114219    0.168583   -0.127959    0.005045
C    -1.019900   -0.741337    0.082323   -0.109148    0.222433   -0.013725
N    -0.766402    0.536200   -0.019774   -0.070075   -0.254606    0.021315
C     0.474478    1.225725   -0.104719   -0.089800   -0.003320    0.002436
O    -2.115160   -1.254090    0.147674    0.037338    0.011206   -0.001779
O     0.553291    2.448650   -0.199868    0.050444    0.019521   -0.002678
H     2.107317   -1.907810    0.090394   -0.719344   -0.965138    0.089556
H    -0.084743   -2.558719    0.193657   -0.632465   -0.039198    0.020865
H    -1.467052    1.303427   -0.061601    0.679458    0.766503   -0.080958
H     2.694949    0.601899   -0.114020    0.388465   -0.793596    0.049689
12
* Frequency(25) 1381.2796
C     1.620976    0.334655   -0.066494   -0.084010    0.313379   -0.021593
C     1.417534   -1.021874    0.041371    0.074978   -0.040721    0.001436
N     0.161124   -1.553935    0.113670    0.168583   -0.127959    0.005045
C    -1.008006   -0.765577    0.083819   -0.109148    0.222433   -0.013725
N    -0.758765    0.563945   -0.022097   -0.070075   -0.254606    0.021315
C     0.484264    1.226087   -0.104985   -0.089800   -0.003320    0.002436
O    -2.119228   -1.255311    0.147868    0.037338    0.011206   -0.001779
O     0.547794    2.446523   -0.199576    0.050444    0.019521   -0.002678
H     2.185706   -1.802636    0.080635   -0.719344   -0.965138    0.089556
H    -0.015821   -2.554447    0.191383   -0.632465   -0.039198    0.020865
H    -1.541095    1.219898   -0.052779    0.679458    0.766503   -0.080958
H     2.652616    0.688380   -0.119435    0.388465   -0.793596    0.049689
12
* Frequency(25) 1381.2796
C     1.630655    0.298548   -0.064006   -0.084010    0.313379   -0.021593
C     1.408896   -1.017183    0.041205    0.074978   -0.040721    0.001436
N     0.141700   -1.539192    0.113088    0.168583   -0.127959    0.005045
C    -0.995430   -0.791205    0.085400   -0.109148    0.222433   -0.013725
N    -0.750691    0.593280   -0.024552   -0.070075   -0.254606    0.021315
C     0.494610    1.226470   -0.105265   -0.089800   -0.003320    0.002436
O    -2.123530   -1.256602    0.148073    0.037338    0.011206   -0.001779
O     0.541982    2.444273   -0.199268    0.050444    0.019521   -0.002678
H     2.268586   -1.691437    0.070316   -0.719344   -0.965138    0.089556
H     0.057049   -2.549931    0.188979   -0.632465   -0.039198    0.020865
H    -1.619380    1.131585   -0.043452    0.679458    0.766503   -0.080958
H     2.607859    0.779815   -0.125160    0.388465   -0.793596    0.049689
12
* Frequency(25) 1381.2796
C     1.639810    0.264398   -0.061653   -0.084010    0.313379   -0.021593
C     1.400725   -1.012745    0.041049    0.074978   -0.040721    0.001436
N     0.123329   -1.525248    0.112539    0.168583   -0.127959    0.005045
C    -0.983536   -0.815444    0.086896   -0.109148    0.222433   -0.013725
N    -0.743055    0.621025   -0.026875   -0.070075   -0.254606    0.021315
C     0.504396    1.226831   -0.105531   -0.089800   -0.003320    0.002436
O    -2.127599   -1.257823    0.148267    0.037338    0.011206   -0.001779
O     0.536485    2.442146   -0.198976    0.050444    0.019521   -0.002678
H     2.346976   -1.586262    0.060557   -0.719344   -0.965138    0.089556
H     0.125971   -2.545659    0.186705   -0.632465   -0.039198    0.020865
H    -1.693423    1.048056   -0.034629    0.679458    0.766503   -0.080958
H     2.565527    0.866296   -0.130575    0.388465   -0.793596    0.049689
12
* Frequency(25) 1381.2796
C     1.647448    0.235905   -0.059690   -0.084010    0.313379   -0.021593
C     1.393908   -1.009043    0.040918    0.074978   -0.040721    0.001436
N     0.108001   -1.513613    0.112080    0.168583   -0.127959    0.005045
C    -0.973612   -0.835668    0.088144   -0.109148    0.222433   -0.013725
N    -0.736684    0.644174   -0.028813   -0.070075   -0.254606    0.021315
C     0.512561    1.227133   -0.105752   -0.089800   -0.003320    0.002436
O    -2.130994   -1.258842    0.148428    0.037338    0.011206   -0.001779
O     0.531898    2.440371   -0.198732    0.050444    0.019521   -0.002678
H     2.412380   -1.498510    0.052414   -0.719344   -0.965138    0.089556
H     0.183476   -2.542095    0.184808   -0.632465   -0.039198    0.020865
H    -1.755200    0.978364   -0.027268    0.679458    0.766503   -0.080958
H     2.530207    0.938451   -0.135093    0.388465   -0.793596    0.049689
12
* Frequency(25) 1381.2796
C     1.652743    0.216157   -0.058329   -0.084010    0.313379   -0.021593
C     1.389183   -1.006476    0.040828    0.074978   -0.040721    0.001436
N     0.097378   -1.505550    0.111762    0.168583   -0.127959    0.005045
C    -0.966733   -0.849685    0.089009   -0.109148    0.222433   -0.013725
N    -0.732268    0.660219   -0.030156   -0.070075   -0.254606    0.021315
C     0.518220    1.227342   -0.105906   -0.089800   -0.003320    0.002436
O    -2.133347   -1.259548    0.148540    0.037338    0.011206   -0.001779
O     0.528720    2.439141   -0.198564    0.050444    0.019521   -0.002678
H     2.457711   -1.437690    0.046771   -0.719344   -0.965138    0.089556
H     0.223333   -2.539625    0.183493   -0.632465   -0.039198    0.020865
H    -1.798018    0.930061   -0.022167    0.679458    0.766503   -0.080958
H     2.505727    0.988461   -0.138224    0.388465   -0.793596    0.049689
12
* Frequency(25) 1381.2796
C     1.655119    0.207293   -0.057718   -0.084010    0.313379   -0.021593
C     1.387063   -1.005325    0.040787    0.074978   -0.040721    0.001436
N     0.092609   -1.501931    0.111619    0.168583   -0.127959    0.005045
C    -0.963646   -0.855977    0.089397   -0.109148    0.222433   -0.013725
N    -0.730286    0.667420   -0.030759   -0.070075   -0.254606    0.021315
C     0.520760    1.227436   -0.105975   -0.089800   -0.003320    0.002436
O    -2.134403   -1.259865    0.148591    0.037338    0.011206   -0.001779
O     0.527293    2.438589   -0.198488    0.050444    0.019521   -0.002678
H     2.478057   -1.410392    0.044238   -0.719344   -0.965138    0.089556
H     0.241221   -2.538517    0.182903   -0.632465   -0.039198    0.020865
H    -1.817236    0.908381   -0.019877    0.679458    0.766503   -0.080958
H     2.494739    1.010907   -0.139629    0.388465   -0.793596    0.049689
12
* Frequency(25) 1381.2796
C     1.654319    0.210275   -0.057924   -0.084010    0.313379   -0.021593
C     1.387776   -1.005712    0.040801    0.074978   -0.040721    0.001436
N     0.094213   -1.503148    0.111667    0.168583   -0.127959    0.005045
C    -0.964685   -0.853860    0.089266   -0.109148    0.222433   -0.013725
N    -0.730953    0.664997   -0.030556   -0.070075   -0.254606    0.021315
C     0.519906    1.227405   -0.105951   -0.089800   -0.003320    0.002436
O    -2.134048   -1.259759    0.148574    0.037338    0.011206   -0.001779
O     0.527773    2.438775   -0.198513    0.050444    0.019521   -0.002678
H     2.471212   -1.419575    0.045090   -0.719344   -0.965138    0.089556
H     0.235204   -2.538889    0.183102   -0.632465   -0.039198    0.020865
H    -1.810771    0.915674   -0.020647    0.679458    0.766503   -0.080958
H     2.498435    1.003356   -0.139156    0.388465   -0.793596    0.049689
12
* Frequency(25) 1381.2796
C     1.650431    0.224779   -0.058923   -0.084010    0.313379   -0.021593
C     1.391246   -1.007597    0.040867    0.074978   -0.040721    0.001436
N     0.102016   -1.509070    0.111901    0.168583   -0.127959    0.005045
C    -0.969736   -0.843566    0.088631   -0.109148    0.222433   -0.013725
N    -0.734196    0.653214   -0.029570   -0.070075   -0.254606    0.021315
C     0.515749    1.227251   -0.105839   -0.089800   -0.003320    0.002436
O    -2.132320   -1.259240    0.148491    0.037338    0.011206   -0.001779
O     0.530107    2.439678   -0.198637    0.050444    0.019521   -0.002678
H     2.437920   -1.464243    0.049235   -0.719344   -0.965138    0.089556
H     0.205932   -2.540704    0.184067   -0.632465   -0.039198    0.020865
H    -1.779324    0.951150   -0.024394    0.679458    0.766503   -0.080958
H     2.516414    0.966627   -0.136857    0.388465   -0.793596    0.049689
12
* Frequency(25) 1381.2796
C     1.643876    0.249233   -0.060608   -0.084010    0.313379   -0.021593
C     1.397097   -1.010774    0.040979    0.074978   -0.040721    0.001436
N     0.115171   -1.519055    0.112294    0.168583   -0.127959    0.005045
C    -0.978254   -0.826208    0.087560   -0.109148    0.222433   -0.013725
N    -0.739664    0.633346   -0.027907   -0.070075   -0.254606    0.021315
C     0.508742    1.226992   -0.105649   -0.089800   -0.003320    0.002436
O    -2.129406   -1.258366    0.148353    0.037338    0.011206   -0.001779
O     0.534044    2.441201   -0.198846    0.050444    0.019521   -0.002678
H     2.381787   -1.539556    0.056223   -0.719344   -0.965138    0.089556
H     0.156578   -2.543762    0.185695   -0.632465   -0.039198    0.020865
H    -1.726304    1.010963   -0.030712    0.679458    0.766503   -0.080958
H     2.546728    0.904700   -0.132979    0.388465   -0.793596    0.049689
12
* Frequency(25) 1381.2796
C     1.635363    0.280988   -0.062796   -0.084010    0.313379   -0.021593
C     1.404694   -1.014901    0.041125    0.074978   -0.040721    0.001436
N     0.132253   -1.532021    0.112806    0.168583   -0.127959    0.005045
C    -0.989314   -0.803669    0.086169   -0.109148    0.222433   -0.013725
N    -0.746765    0.607547   -0.025747   -0.070075   -0.254606    0.021315
C     0.499643    1.226656   -0.105402   -0.089800   -0.003320    0.002436
O    -2.125623   -1.257230    0.148172    0.037338    0.011206   -0.001779
O     0.539155    2.443180   -0.199118    0.050444    0.019521   -0.002678
H     2.308896   -1.637353    0.065298   -0.719344   -0.965138    0.089556
H     0.092491   -2.547734    0.187810   -0.632465   -0.039198    0.020865
H    -1.657454    1.088632   -0.038915    0.679458    0.766503   -0.080958
H     2.586091    0.824285   -0.127944    0.388465   -0.793596    0.049689
12
* Frequency(25) 1381.2796
C     1.625816    0.316601   -0.065250   -0.084010    0.313379   -0.021593
C     1.413215   -1.019528    0.041288    0.074978   -0.040721    0.001436
N     0.151412   -1.546563    0.113379    0.168583   -0.127959    0.005045
C    -1.001718   -0.778391    0.084609   -0.109148    0.222433   -0.013725
N    -0.754728    0.578612   -0.023325   -0.070075   -0.254606    0.021315
C     0.489437    1.226278   -0.105125   -0.089800   -0.003320    0.002436
O    -2.121379   -1.255957    0.147970    0.037338    0.011206   -0.001779
O     0.544888    2.445398   -0.199422    0.050444    0.019521   -0.002678
H     2.227146   -1.747036    0.075476   -0.719344   -0.965138    0.089556
H     0.020614   -2.552189    0.190181   -0.632465   -0.039198    0.020865
H    -1.580237    1.175741   -0.048115    0.679458    0.766503   -0.080958
H     2.630238    0.734097   -0.122298    0.388465   -0.793596    0.049689
