12
* (null), Energy   -1000.0000000
C     1.321514    0.518496   -0.072777    0.294716   -0.075724    0.005049
C     1.109175   -0.817930    0.032797    0.134294   -0.133165   -0.001667
N    -0.152373   -1.344381    0.103578    0.123944   -0.345953    0.026906
C    -1.303319   -0.575774    0.076278    0.237302   -0.093638    0.003905
N    -1.058010    0.780216   -0.032013    0.559703   -0.350321    0.009098
C     0.185580    1.426809   -0.112240    0.156800   -0.105772    0.008048
O    -2.424404   -1.053547    0.141169   -0.230673    1.026941   -0.071766
O     0.240353    2.647240   -0.204710   -1.073273   -0.040606    0.028147
H     1.922616   -1.545424    0.067591    0.169445   -0.100279   -0.022079
H    -0.283402   -2.349496    0.186263    0.254409   -0.368869    0.017131
H    -1.883441    1.377385   -0.056304    0.571640   -0.349320    0.000055
H     2.325711    0.936406   -0.129663    0.392972   -0.296222    0.014170
12
* Frequency(8)  394.3844
C     1.355007    0.509891   -0.072203    0.294716   -0.075724    0.005049
C     1.124437   -0.833064    0.032608    0.134294   -0.133165   -0.001667
N    -0.138288   -1.383697    0.106636    0.123944   -0.345953    0.026906
C    -1.276351   -0.586415    0.076722    0.237302   -0.093638    0.003905
N    -0.994403    0.740404   -0.030979    0.559703   -0.350321    0.009098
C     0.203399    1.414788   -0.111325    0.156800   -0.105772    0.008048
O    -2.450619   -0.936840    0.133013   -0.230673    1.026941   -0.071766
O     0.118382    2.642625   -0.201511   -1.073273   -0.040606    0.028147
H     1.941873   -1.556820    0.065082    0.169445   -0.100279   -0.022079
H    -0.254489   -2.391416    0.188210    0.254409   -0.368869    0.017131
H    -1.818477    1.337687   -0.056298    0.571640   -0.349320    0.000055
H     2.370370    0.902742   -0.128053    0.392972   -0.296222    0.014170
12
* Frequency(8)  394.3844
C     1.384870    0.502218   -0.071691    0.294716   -0.075724    0.005049
C     1.138045   -0.846557    0.032439    0.134294   -0.133165   -0.001667
N    -0.125729   -1.418752    0.109362    0.123944   -0.345953    0.026906
C    -1.252305   -0.595904    0.077118    0.237302   -0.093638    0.003905
N    -0.937688    0.704906   -0.030057    0.559703   -0.350321    0.009098
C     0.219288    1.404070   -0.110510    0.156800   -0.105772    0.008048
O    -2.473993   -0.832781    0.125741   -0.230673    1.026941   -0.071766
O     0.009627    2.638511   -0.198659   -1.073273   -0.040606    0.028147
H     1.959043   -1.566981    0.062845    0.169445   -0.100279   -0.022079
H    -0.228710   -2.428794    0.189946    0.254409   -0.368869    0.017131
H    -1.760553    1.302290   -0.056293    0.571640   -0.349320    0.000055
H     2.410190    0.872726   -0.126617    0.392972   -0.296222    0.014170
12
* Frequency(8)  394.3844
C     1.407868    0.496309   -0.071297    0.294716   -0.075724    0.005049
C     1.148525   -0.856948    0.032309    0.134294   -0.133165   -0.001667
N    -0.116057   -1.445748    0.111462    0.123944   -0.345953    0.026906
C    -1.233788   -0.603211    0.077423    0.237302   -0.093638    0.003905
N    -0.894012    0.677569   -0.029347    0.559703   -0.350321    0.009098
C     0.231524    1.395817   -0.109881    0.156800   -0.105772    0.008048
O    -2.491993   -0.752644    0.120141   -0.230673    1.026941   -0.071766
O    -0.074124    2.635342   -0.196463   -1.073273   -0.040606    0.028147
H     1.972265   -1.574807    0.061122    0.169445   -0.100279   -0.022079
H    -0.208858   -2.457578    0.191283    0.254409   -0.368869    0.017131
H    -1.715945    1.275031   -0.056288    0.571640   -0.349320    0.000055
H     2.440855    0.849611   -0.125511    0.392972   -0.296222    0.014170
12
* Frequency(8)  394.3844
C     1.421508    0.492804   -0.071064    0.294716   -0.075724    0.005049
C     1.154740   -0.863112    0.032232    0.134294   -0.133165   -0.001667
N    -0.110321   -1.461760    0.112707    0.123944   -0.345953    0.026906
C    -1.222805   -0.607544    0.077603    0.237302   -0.093638    0.003905
N    -0.868108    0.661356   -0.028926    0.559703   -0.350321    0.009098
C     0.238781    1.390921   -0.109509    0.156800   -0.105772    0.008048
O    -2.502669   -0.705116    0.116819   -0.230673    1.026941   -0.071766
O    -0.123797    2.633463   -0.195160   -1.073273   -0.040606    0.028147
H     1.980107   -1.579448    0.060100    0.169445   -0.100279   -0.022079
H    -0.197083   -2.474650    0.192076    0.254409   -0.368869    0.017131
H    -1.689489    1.258864   -0.056286    0.571640   -0.349320    0.000055
H     2.459042    0.835901   -0.124855    0.392972   -0.296222    0.014170
12
* Frequency(8)  394.3844
C     1.424312    0.492083   -0.071015    0.294716   -0.075724    0.005049
C     1.156018   -0.864379    0.032216    0.134294   -0.133165   -0.001667
N    -0.109141   -1.465051    0.112963    0.123944   -0.345953    0.026906
C    -1.220547   -0.608435    0.077641    0.237302   -0.093638    0.003905
N    -0.862783    0.658023   -0.028839    0.559703   -0.350321    0.009098
C     0.240272    1.389915   -0.109432    0.156800   -0.105772    0.008048
O    -2.504864   -0.695345    0.116137   -0.230673    1.026941   -0.071766
O    -0.134009    2.633076   -0.194892   -1.073273   -0.040606    0.028147
H     1.981719   -1.580402    0.059890    0.169445   -0.100279   -0.022079
H    -0.194663   -2.478160    0.192239    0.254409   -0.368869    0.017131
H    -1.684050    1.255541   -0.056285    0.571640   -0.349320    0.000055
H     2.462781    0.833083   -0.124721    0.392972   -0.296222    0.014170
12
* Frequency(8)  394.3844
C     1.415976    0.494225   -0.071158    0.294716   -0.075724    0.005049
C     1.152219   -0.860612    0.032263    0.134294   -0.133165   -0.001667
N    -0.112647   -1.455266    0.112202    0.123944   -0.345953    0.026906
C    -1.227259   -0.605787    0.077530    0.237302   -0.093638    0.003905
N    -0.878614    0.667931   -0.029096    0.559703   -0.350321    0.009098
C     0.235838    1.392907   -0.109660    0.156800   -0.105772    0.008048
O    -2.498340   -0.724391    0.118166   -0.230673    1.026941   -0.071766
O    -0.103653    2.634225   -0.195689   -1.073273   -0.040606    0.028147
H     1.976927   -1.577566    0.060514    0.169445   -0.100279   -0.022079
H    -0.201858   -2.467727    0.191754    0.254409   -0.368869    0.017131
H    -1.700218    1.265421   -0.056287    0.571640   -0.349320    0.000055
H     2.451666    0.841461   -0.125121    0.392972   -0.296222    0.014170
12
* Frequency(8)  394.3844
C     1.397404    0.498997   -0.071477    0.294716   -0.075724    0.005049
C     1.143756   -0.852220    0.032368    0.134294   -0.133165   -0.001667
N    -0.120458   -1.433465    0.110507    0.123944   -0.345953    0.026906
C    -1.242213   -0.599886    0.077284    0.237302   -0.093638    0.003905
N    -0.913885    0.690008   -0.029670    0.559703   -0.350321    0.009098
C     0.225956    1.399572   -0.110167    0.156800   -0.105772    0.008048
O    -2.483803   -0.789106    0.122689   -0.230673    1.026941   -0.071766
O    -0.036018    2.636784   -0.197462   -1.073273   -0.040606    0.028147
H     1.966249   -1.571246    0.061906    0.169445   -0.100279   -0.022079
H    -0.217890   -2.444481    0.190675    0.254409   -0.368869    0.017131
H    -1.736241    1.287434   -0.056290    0.571640   -0.349320    0.000055
H     2.426902    0.860128   -0.126014    0.392972   -0.296222    0.014170
12
* Frequency(8)  394.3844
C     1.370608    0.505882   -0.071936    0.294716   -0.075724    0.005049
C     1.131546   -0.840113    0.032520    0.134294   -0.133165   -0.001667
N    -0.131727   -1.402011    0.108060    0.123944   -0.345953    0.026906
C    -1.263789   -0.591372    0.076929    0.237302   -0.093638    0.003905
N    -0.964774    0.721859   -0.030497    0.559703   -0.350321    0.009098
C     0.211700    1.409189   -0.110899    0.156800   -0.105772    0.008048
O    -2.462830   -0.882477    0.129214   -0.230673    1.026941   -0.071766
O     0.061566    2.640476   -0.200021   -1.073273   -0.040606    0.028147
H     1.950843   -1.562129    0.063913    0.169445   -0.100279   -0.022079
H    -0.241022   -2.410943    0.189117    0.254409   -0.368869    0.017131
H    -1.788216    1.319195   -0.056295    0.571640   -0.349320    0.000055
H     2.391173    0.887061   -0.127303    0.392972   -0.296222    0.014170
12
* Frequency(8)  394.3844
C     1.338492    0.514134   -0.072486    0.294716   -0.075724    0.005049
C     1.116912   -0.825601    0.032701    0.134294   -0.133165   -0.001667
N    -0.145233   -1.364311    0.105128    0.123944   -0.345953    0.026906
C    -1.289649   -0.581168    0.076503    0.237302   -0.093638    0.003905
N    -1.025767    0.760035   -0.031488    0.559703   -0.350321    0.009098
C     0.194613    1.420715   -0.111776    0.156800   -0.105772    0.008048
O    -2.437693   -0.994387    0.137034   -0.230673    1.026941   -0.071766
O     0.178524    2.644901   -0.203089   -1.073273   -0.040606    0.028147
H     1.932378   -1.551201    0.066319    0.169445   -0.100279   -0.022079
H    -0.268746   -2.370746    0.187250    0.254409   -0.368869    0.017131
H    -1.850510    1.357261   -0.056301    0.571640   -0.349320    0.000055
H     2.348349    0.919341   -0.128847    0.392972   -0.296222    0.014170
12
* Frequency(8)  394.3844
C     1.304536    0.522859   -0.073068    0.294716   -0.075724    0.005049
C     1.101439   -0.810259    0.032893    0.134294   -0.133165   -0.001667
N    -0.159514   -1.324452    0.102028    0.123944   -0.345953    0.026906
C    -1.316990   -0.570380    0.076053    0.237302   -0.093638    0.003905
N    -1.090254    0.800398   -0.032537    0.559703   -0.350321    0.009098
C     0.176547    1.432902   -0.112703    0.156800   -0.105772    0.008048
O    -2.411116   -1.112707    0.145303   -0.230673    1.026941   -0.071766
O     0.302183    2.649579   -0.206332   -1.073273   -0.040606    0.028147
H     1.912855   -1.539647    0.068863    0.169445   -0.100279   -0.022079
H    -0.298058   -2.328247    0.185276    0.254409   -0.368869    0.017131
H    -1.916372    1.397509   -0.056308    0.571640   -0.349320    0.000055
H     2.303072    0.953471   -0.130480    0.392972   -0.296222    0.014170
12
* Frequency(8)  394.3844
C     1.272419    0.531110   -0.073618    0.294716   -0.075724    0.005049
C     1.086804   -0.795747    0.033075    0.134294   -0.133165   -0.001667
N    -0.173020   -1.286752    0.099096    0.123944   -0.345953    0.026906
C    -1.342849   -0.560176    0.075628    0.237302   -0.093638    0.003905
N    -1.151246    0.838573   -0.033528    0.559703   -0.350321    0.009098
C     0.159460    1.444428   -0.113580    0.156800   -0.105772    0.008048
O    -2.385979   -1.224616    0.153124   -0.230673    1.026941   -0.071766
O     0.419141    2.654004   -0.209399   -1.073273   -0.040606    0.028147
H     1.894390   -1.528719    0.071269    0.169445   -0.100279   -0.022079
H    -0.325781   -2.288050    0.183410    0.254409   -0.368869    0.017131
H    -1.978665    1.435575   -0.056314    0.571640   -0.349320    0.000055
H     2.260249    0.985751   -0.132024    0.392972   -0.296222    0.014170
12
* Frequency(8)  394.3844
C     1.245623    0.537995   -0.074077    0.294716   -0.075724    0.005049
C     1.074594   -0.783640    0.033226    0.134294   -0.133165   -0.001667
N    -0.184289   -1.255297    0.096650    0.123944   -0.345953    0.026906
C    -1.364425   -0.551662    0.075273    0.237302   -0.093638    0.003905
N    -1.202136    0.870425   -0.034355    0.559703   -0.350321    0.009098
C     0.145203    1.454045   -0.114312    0.156800   -0.105772    0.008048
O    -2.365005   -1.317987    0.159649   -0.230673    1.026941   -0.071766
O     0.516725    2.657696   -0.211958   -1.073273   -0.040606    0.028147
H     1.878983   -1.519602    0.073276    0.169445   -0.100279   -0.022079
H    -0.348913   -2.254512    0.181852    0.254409   -0.368869    0.017131
H    -2.030640    1.467336   -0.056319    0.571640   -0.349320    0.000055
H     2.224519    1.012684   -0.133312    0.392972   -0.296222    0.014170
12
* Frequency(8)  394.3844
C     1.227051    0.542767   -0.074395    0.294716   -0.075724    0.005049
C     1.066131   -0.775248    0.033331    0.134294   -0.133165   -0.001667
N    -0.192100   -1.233496    0.094955    0.123944   -0.345953    0.026906
C    -1.379379   -0.545761    0.075026    0.237302   -0.093638    0.003905
N    -1.237407    0.892501   -0.034929    0.559703   -0.350321    0.009098
C     0.135322    1.460711   -0.114819    0.156800   -0.105772    0.008048
O    -2.350469   -1.382702    0.164171   -0.230673    1.026941   -0.071766
O     0.584360    2.660255   -0.213732   -1.073273   -0.040606    0.028147
H     1.868305   -1.513282    0.074668    0.169445   -0.100279   -0.022079
H    -0.364945   -2.231266    0.180772    0.254409   -0.368869    0.017131
H    -2.066663    1.489349   -0.056322    0.571640   -0.349320    0.000055
H     2.199755    1.031351   -0.134205    0.392972   -0.296222    0.014170
12
* Frequency(8)  394.3844
C     1.218715    0.544909   -0.074538    0.294716   -0.075724    0.005049
C     1.062333   -0.771482    0.033379    0.134294   -0.133165   -0.001667
N    -0.195606   -1.223711    0.094194    0.123944   -0.345953    0.026906
C    -1.386091   -0.543113    0.074916    0.237302   -0.093638    0.003905
N    -1.253237    0.902410   -0.035186    0.559703   -0.350321    0.009098
C     0.130887    1.463702   -0.115047    0.156800   -0.105772    0.008048
O    -2.343945   -1.411748    0.166201   -0.230673    1.026941   -0.071766
O     0.614716    2.661403   -0.214528   -1.073273   -0.040606    0.028147
H     1.863513   -1.510446    0.075292    0.169445   -0.100279   -0.022079
H    -0.372141   -2.220833    0.180288    0.254409   -0.368869    0.017131
H    -2.082831    1.499230   -0.056324    0.571640   -0.349320    0.000055
H     2.188640    1.039730   -0.134606    0.392972   -0.296222    0.014170
12
* Frequency(8)  394.3844
C     1.221519    0.544189   -0.074490    0.294716   -0.075724    0.005049
C     1.063611   -0.772749    0.033363    0.134294   -0.133165   -0.001667
N    -0.194426   -1.227003    0.094450    0.123944   -0.345953    0.026906
C    -1.383833   -0.544004    0.074953    0.237302   -0.093638    0.003905
N    -1.247912    0.899077   -0.035100    0.559703   -0.350321    0.009098
C     0.132379    1.462696   -0.114970    0.156800   -0.105772    0.008048
O    -2.346139   -1.401978    0.165518   -0.230673    1.026941   -0.071766
O     0.604504    2.661017   -0.214260   -1.073273   -0.040606    0.028147
H     1.865125   -1.511400    0.075082    0.169445   -0.100279   -0.022079
H    -0.369720   -2.224343    0.180451    0.254409   -0.368869    0.017131
H    -2.077393    1.495906   -0.056323    0.571640   -0.349320    0.000055
H     2.192379    1.036911   -0.134471    0.392972   -0.296222    0.014170
12
* Frequency(8)  394.3844
C     1.235159    0.540684   -0.074256    0.294716   -0.075724    0.005049
C     1.069826   -0.778912    0.033286    0.134294   -0.133165   -0.001667
N    -0.188690   -1.243014    0.095695    0.123944   -0.345953    0.026906
C    -1.372851   -0.548337    0.075134    0.237302   -0.093638    0.003905
N    -1.222008    0.882863   -0.034678    0.559703   -0.350321    0.009098
C     0.139636    1.457801   -0.114598    0.156800   -0.105772    0.008048
O    -2.356815   -1.354449    0.162197   -0.230673    1.026941   -0.071766
O     0.554831    2.659138   -0.212957   -1.073273   -0.040606    0.028147
H     1.872967   -1.516041    0.074060    0.169445   -0.100279   -0.022079
H    -0.357945   -2.241415    0.181244    0.254409   -0.368869    0.017131
H    -2.050936    1.479739   -0.056320    0.571640   -0.349320    0.000055
H     2.210567    1.023202   -0.133815    0.392972   -0.296222    0.014170
12
* Frequency(8)  394.3844
C     1.258157    0.534775   -0.073862    0.294716   -0.075724    0.005049
C     1.080305   -0.789303    0.033155    0.134294   -0.133165   -0.001667
N    -0.179018   -1.270010    0.097794    0.123944   -0.345953    0.026906
C    -1.354333   -0.555644    0.075439    0.237302   -0.093638    0.003905
N    -1.178332    0.855526   -0.033969    0.559703   -0.350321    0.009098
C     0.151872    1.449547   -0.113970    0.156800   -0.105772    0.008048
O    -2.374816   -1.274313    0.156597   -0.230673    1.026941   -0.071766
O     0.471080    2.655969   -0.210761   -1.073273   -0.040606    0.028147
H     1.886190   -1.523866    0.072337    0.169445   -0.100279   -0.022079
H    -0.338093   -2.270199    0.182581    0.254409   -0.368869    0.017131
H    -2.006329    1.452480   -0.056316    0.571640   -0.349320    0.000055
H     2.241232    1.000086   -0.132710    0.392972   -0.296222    0.014170
12
* Frequency(8)  394.3844
C     1.288021    0.527102   -0.073351    0.294716   -0.075724    0.005049
C     1.093913   -0.802797    0.032987    0.134294   -0.133165   -0.001667
N    -0.166459   -1.305065    0.100521    0.123944   -0.345953    0.026906
C    -1.330287   -0.565133    0.075834    0.237302   -0.093638    0.003905
N    -1.121618    0.820029   -0.033047    0.559703   -0.350321    0.009098
C     0.167760    1.438829   -0.113154    0.156800   -0.105772    0.008048
O    -2.398190   -1.170253    0.149325   -0.230673    1.026941   -0.071766
O     0.362325    2.651855   -0.207909   -1.073273   -0.040606    0.028147
H     1.903360   -1.534028    0.070100    0.169445   -0.100279   -0.022079
H    -0.312314   -2.307576    0.184316    0.254409   -0.368869    0.017131
H    -1.948405    1.417084   -0.056311    0.571640   -0.349320    0.000055
H     2.281052    0.970070   -0.131274    0.392972   -0.296222    0.014170
12
* Frequency(8)  394.3844
C     1.321514    0.518496   -0.072777    0.294716   -0.075724    0.005049
C     1.109175   -0.817930    0.032797    0.134294   -0.133165   -0.001667
N    -0.152373   -1.344381    0.103578    0.123944   -0.345953    0.026906
C    -1.303319   -0.575774    0.076278    0.237302   -0.093638    0.003905
N    -1.058010    0.780216   -0.032013    0.559703   -0.350321    0.009098
C     0.185580    1.426809   -0.112240    0.156800   -0.105772    0.008048
O    -2.424404   -1.053547    0.141169   -0.230673    1.026941   -0.071766
O     0.240353    2.647240   -0.204710   -1.073273   -0.040606    0.028147
H     1.922616   -1.545424    0.067591    0.169445   -0.100279   -0.022079
H    -0.283402   -2.349496    0.186263    0.254409   -0.368869    0.017131
H    -1.883441    1.377385   -0.056304    0.571640   -0.349320    0.000055
H     2.325711    0.936406   -0.129663    0.392972   -0.296222    0.014170
