12
* (null), Energy   -1000.0000000
C     1.625816    0.316601   -0.065250    0.077966    0.455834   -0.033696
C     1.413215   -1.019528    0.041288    0.071362    0.518242   -0.044400
N     0.151412   -1.546563    0.113379    0.140094   -0.120326   -0.002509
C    -1.001718   -0.778391    0.084609   -0.249805   -0.501662    0.042071
N    -0.754728    0.578612   -0.023325    0.053268   -0.430523    0.034517
C     0.489437    1.226278   -0.105125   -0.017760   -0.026485    0.007554
O    -2.121379   -1.255957    0.147970   -0.606265    0.170570    0.002250
O     0.544888    2.445398   -0.199422    0.454292   -0.061717   -0.009134
H     2.227146   -1.747036    0.075476    0.239395    0.712421   -0.060544
H     0.020614   -2.552189    0.190181    0.960687   -0.224313    0.092109
H    -1.580237    1.175741   -0.048115   -0.043523   -0.568917    0.028755
H     2.630238    0.734097   -0.122298   -0.022486    0.694043   -0.056599
12
* Frequency(12)  572.0529
C     1.634676    0.368405   -0.069079    0.077966    0.455834   -0.033696
C     1.421325   -0.960633    0.036242    0.071362    0.518242   -0.044400
N     0.167333   -1.560238    0.113094    0.140094   -0.120326   -0.002509
C    -1.030107   -0.835402    0.089391   -0.249805   -0.501662    0.042071
N    -0.748675    0.529685   -0.019402    0.053268   -0.430523    0.034517
C     0.487419    1.223268   -0.104266   -0.017760   -0.026485    0.007554
O    -2.190278   -1.236572    0.148226   -0.606265    0.170570    0.002250
O     0.596516    2.438384   -0.200460    0.454292   -0.061717   -0.009134
H     2.254352   -1.666073    0.068595    0.239395    0.712421   -0.060544
H     0.129791   -2.577681    0.200649    0.960687   -0.224313    0.092109
H    -1.585184    1.111087   -0.044848   -0.043523   -0.568917    0.028755
H     2.627682    0.812971   -0.128730   -0.022486    0.694043   -0.056599
12
* Frequency(12)  572.0529
C     1.642576    0.414594   -0.072494    0.077966    0.455834   -0.033696
C     1.428556   -0.908120    0.031743    0.071362    0.518242   -0.044400
N     0.181529   -1.572430    0.112840    0.140094   -0.120326   -0.002509
C    -1.055419   -0.886235    0.093654   -0.249805   -0.501662    0.042071
N    -0.743277    0.486061   -0.015904    0.053268   -0.430523    0.034517
C     0.485619    1.220585   -0.103501   -0.017760   -0.026485    0.007554
O    -2.251711   -1.219289    0.148454   -0.606265    0.170570    0.002250
O     0.642549    2.432130   -0.201385    0.454292   -0.061717   -0.009134
H     2.278610   -1.593884    0.062460    0.239395    0.712421   -0.060544
H     0.227137   -2.600411    0.209982    0.960687   -0.224313    0.092109
H    -1.589594    1.053439   -0.041934   -0.043523   -0.568917    0.028755
H     2.625404    0.883299   -0.134465   -0.022486    0.694043   -0.056599
12
* Frequency(12)  572.0529
C     1.648660    0.450165   -0.075123    0.077966    0.455834   -0.033696
C     1.434125   -0.867679    0.028278    0.071362    0.518242   -0.044400
N     0.192461   -1.581820    0.112644    0.140094   -0.120326   -0.002509
C    -1.074913   -0.925382    0.096937   -0.249805   -0.501662    0.042071
N    -0.739120    0.452465   -0.013211    0.053268   -0.430523    0.034517
C     0.484233    1.218518   -0.102911   -0.017760   -0.026485    0.007554
O    -2.299020   -1.205978    0.148630   -0.606265    0.170570    0.002250
O     0.677999    2.427314   -0.202098    0.454292   -0.061717   -0.009134
H     2.297291   -1.538291    0.057736    0.239395    0.712421   -0.060544
H     0.302104   -2.617915    0.217170    0.960687   -0.224313    0.092109
H    -1.592990    1.009044   -0.039690   -0.043523   -0.568917    0.028755
H     2.623649    0.937457   -0.138882   -0.022486    0.694043   -0.056599
12
* Frequency(12)  572.0529
C     1.652269    0.471262   -0.076683    0.077966    0.455834   -0.033696
C     1.437428   -0.843694    0.026223    0.071362    0.518242   -0.044400
N     0.198944   -1.587389    0.112528    0.140094   -0.120326   -0.002509
C    -1.086474   -0.948600    0.098884   -0.249805   -0.501662    0.042071
N    -0.736655    0.432540   -0.011613    0.053268   -0.430523    0.034517
C     0.483411    1.217292   -0.102562   -0.017760   -0.026485    0.007554
O    -2.327079   -1.198084    0.148734   -0.606265    0.170570    0.002250
O     0.699024    2.424458   -0.202521    0.454292   -0.061717   -0.009134
H     2.308371   -1.505319    0.054934    0.239395    0.712421   -0.060544
H     0.346566   -2.628296    0.221433    0.960687   -0.224313    0.092109
H    -1.595004    0.982713   -0.038359   -0.043523   -0.568917    0.028755
H     2.622608    0.969579   -0.141501   -0.022486    0.694043   -0.056599
12
* Frequency(12)  572.0529
C     1.653010    0.475599   -0.077003    0.077966    0.455834   -0.033696
C     1.438107   -0.838763    0.025801    0.071362    0.518242   -0.044400
N     0.200277   -1.588533    0.112504    0.140094   -0.120326   -0.002509
C    -1.088851   -0.953373    0.099284   -0.249805   -0.501662    0.042071
N    -0.736148    0.428444   -0.011285    0.053268   -0.430523    0.034517
C     0.483242    1.217040   -0.102490   -0.017760   -0.026485    0.007554
O    -2.332847   -1.196461    0.148755   -0.606265    0.170570    0.002250
O     0.703347    2.423871   -0.202608    0.454292   -0.061717   -0.009134
H     2.310648   -1.498540    0.054358    0.239395    0.712421   -0.060544
H     0.355706   -2.630430    0.222309    0.960687   -0.224313    0.092109
H    -1.595418    0.977301   -0.038086   -0.043523   -0.568917    0.028755
H     2.622395    0.976182   -0.142040   -0.022486    0.694043   -0.056599
12
* Frequency(12)  572.0529
C     1.650805    0.462706   -0.076050    0.077966    0.455834   -0.033696
C     1.436088   -0.853421    0.027057    0.071362    0.518242   -0.044400
N     0.196315   -1.585130    0.112575    0.140094   -0.120326   -0.002509
C    -1.081785   -0.939184    0.098094   -0.249805   -0.501662    0.042071
N    -0.737655    0.440621   -0.012261    0.053268   -0.430523    0.034517
C     0.483745    1.217789   -0.102704   -0.017760   -0.026485    0.007554
O    -2.315700   -1.201286    0.148691   -0.606265    0.170570    0.002250
O     0.690498    2.425616   -0.202349    0.454292   -0.061717   -0.009134
H     2.303877   -1.518690    0.056070    0.239395    0.712421   -0.060544
H     0.328534   -2.624086    0.219704    0.960687   -0.224313    0.092109
H    -1.594187    0.993392   -0.038899   -0.043523   -0.568917    0.028755
H     2.623031    0.956552   -0.140439   -0.022486    0.694043   -0.056599
12
* Frequency(12)  572.0529
C     1.645892    0.433980   -0.073927    0.077966    0.455834   -0.033696
C     1.431591   -0.886079    0.029855    0.071362    0.518242   -0.044400
N     0.187487   -1.577548    0.112733    0.140094   -0.120326   -0.002509
C    -1.066043   -0.907570    0.095443   -0.249805   -0.501662    0.042071
N    -0.741012    0.467751   -0.014436    0.053268   -0.430523    0.034517
C     0.484864    1.219458   -0.103180   -0.017760   -0.026485    0.007554
O    -2.277495   -1.212034    0.148550   -0.606265    0.170570    0.002250
O     0.661869    2.429506   -0.201774    0.454292   -0.061717   -0.009134
H     2.288791   -1.563585    0.059885    0.239395    0.712421   -0.060544
H     0.267994   -2.609950    0.213899    0.960687   -0.224313    0.092109
H    -1.591445    1.029243   -0.040711   -0.043523   -0.568917    0.028755
H     2.624447    0.912815   -0.136872   -0.022486    0.694043   -0.056599
12
* Frequency(12)  572.0529
C     1.638803    0.392535   -0.070863    0.077966    0.455834   -0.033696
C     1.425103   -0.933199    0.033892    0.071362    0.518242   -0.044400
N     0.174749   -1.566607    0.112961    0.140094   -0.120326   -0.002509
C    -1.043331   -0.861958    0.091618   -0.249805   -0.501662    0.042071
N    -0.745855    0.506895   -0.017575    0.053268   -0.430523    0.034517
C     0.486479    1.221866   -0.103866   -0.017760   -0.026485    0.007554
O    -2.222372   -1.227543    0.148345   -0.606265    0.170570    0.002250
O     0.620564    2.435117   -0.200943    0.454292   -0.061717   -0.009134
H     2.267025   -1.628360    0.065390    0.239395    0.712421   -0.060544
H     0.180647   -2.589555    0.205525    0.960687   -0.224313    0.092109
H    -1.587487    1.080970   -0.043325   -0.043523   -0.568917    0.028755
H     2.626492    0.849712   -0.131726   -0.022486    0.694043   -0.056599
12
* Frequency(12)  572.0529
C     1.630307    0.342861   -0.067191    0.077966    0.455834   -0.033696
C     1.417326   -0.989673    0.038730    0.071362    0.518242   -0.044400
N     0.159483   -1.553495    0.113234    0.140094   -0.120326   -0.002509
C    -1.016108   -0.807291    0.087033   -0.249805   -0.501662    0.042071
N    -0.751660    0.553811   -0.021336    0.053268   -0.430523    0.034517
C     0.488414    1.224753   -0.104690   -0.017760   -0.026485    0.007554
O    -2.156305   -1.246131    0.148100   -0.606265    0.170570    0.002250
O     0.571059    2.441843   -0.199948    0.454292   -0.061717   -0.009134
H     2.240937   -1.705995    0.071988    0.239395    0.712421   -0.060544
H     0.075958   -2.565111    0.195487    0.960687   -0.224313    0.092109
H    -1.582745    1.142967   -0.046459   -0.043523   -0.568917    0.028755
H     2.628942    0.774080   -0.125558   -0.022486    0.694043   -0.056599
12
* Frequency(12)  572.0529
C     1.621324    0.290342   -0.063309    0.077966    0.455834   -0.033696
C     1.409104   -1.049383    0.043846    0.071362    0.518242   -0.044400
N     0.143342   -1.539632    0.113524    0.140094   -0.120326   -0.002509
C    -0.987327   -0.749491    0.082186   -0.249805   -0.501662    0.042071
N    -0.757797    0.603414   -0.025313    0.053268   -0.430523    0.034517
C     0.490460    1.227804   -0.105560   -0.017760   -0.026485    0.007554
O    -2.086454   -1.265783    0.147841   -0.606265    0.170570    0.002250
O     0.518717    2.448953   -0.198896    0.454292   -0.061717   -0.009134
H     2.213355   -1.788078    0.078963    0.239395    0.712421   -0.060544
H    -0.034729   -2.539267    0.184875    0.960687   -0.224313    0.092109
H    -1.577730    1.208516   -0.049772   -0.043523   -0.568917    0.028755
H     2.631533    0.694115   -0.119037   -0.022486    0.694043   -0.056599
12
* Frequency(12)  572.0529
C     1.612828    0.240668   -0.059637    0.077966    0.455834   -0.033696
C     1.401327   -1.105858    0.048684    0.071362    0.518242   -0.044400
N     0.128075   -1.526519    0.113797    0.140094   -0.120326   -0.002509
C    -0.960105   -0.694823    0.077601   -0.249805   -0.501662    0.042071
N    -0.763602    0.650329   -0.029074    0.053268   -0.430523    0.034517
C     0.492396    1.230690   -0.106383   -0.017760   -0.026485    0.007554
O    -2.020387   -1.284371    0.147595   -0.606265    0.170570    0.002250
O     0.469211    2.455679   -0.197900    0.454292   -0.061717   -0.009134
H     2.187267   -1.865713    0.085561    0.239395    0.712421   -0.060544
H    -0.139418   -2.514823    0.174837    0.960687   -0.224313    0.092109
H    -1.572987    1.270512   -0.052905   -0.043523   -0.568917    0.028755
H     2.633983    0.618482   -0.112869   -0.022486    0.694043   -0.056599
12
* Frequency(12)  572.0529
C     1.605739    0.199223   -0.056573    0.077966    0.455834   -0.033696
C     1.394839   -1.152978    0.052721    0.071362    0.518242   -0.044400
N     0.115337   -1.515579    0.114025    0.140094   -0.120326   -0.002509
C    -0.937392   -0.649211    0.073776   -0.249805   -0.501662    0.042071
N    -0.768445    0.689473   -0.032213    0.053268   -0.430523    0.034517
C     0.494011    1.233098   -0.107070   -0.017760   -0.026485    0.007554
O    -1.965264   -1.299879    0.147391   -0.606265    0.170570    0.002250
O     0.427906    2.461290   -0.197070    0.454292   -0.061717   -0.009134
H     2.165501   -1.930487    0.091066    0.239395    0.712421   -0.060544
H    -0.226766   -2.494428    0.166463    0.960687   -0.224313    0.092109
H    -1.569030    1.322239   -0.055520   -0.043523   -0.568917    0.028755
H     2.636028    0.555379   -0.107723   -0.022486    0.694043   -0.056599
12
* Frequency(12)  572.0529
C     1.600826    0.170497   -0.054450    0.077966    0.455834   -0.033696
C     1.390342   -1.185636    0.055519    0.071362    0.518242   -0.044400
N     0.106509   -1.507996    0.114183    0.140094   -0.120326   -0.002509
C    -0.921650   -0.617598    0.071125   -0.249805   -0.501662    0.042071
N    -0.771802    0.716604   -0.034388    0.053268   -0.430523    0.034517
C     0.495130    1.234767   -0.107546   -0.017760   -0.026485    0.007554
O    -1.927059   -1.310628    0.147249   -0.606265    0.170570    0.002250
O     0.399278    2.465179   -0.196494    0.454292   -0.061717   -0.009134
H     2.150415   -1.975382    0.094881    0.239395    0.712421   -0.060544
H    -0.287306   -2.480292    0.160658    0.960687   -0.224313    0.092109
H    -1.566288    1.358091   -0.057332   -0.043523   -0.568917    0.028755
H     2.637445    0.511642   -0.104156   -0.022486    0.694043   -0.056599
12
* Frequency(12)  572.0529
C     1.598621    0.157604   -0.053497    0.077966    0.455834   -0.033696
C     1.388324   -1.200294    0.056775    0.071362    0.518242   -0.044400
N     0.102547   -1.504593    0.114254    0.140094   -0.120326   -0.002509
C    -0.914585   -0.603409    0.069935   -0.249805   -0.501662    0.042071
N    -0.773309    0.728781   -0.035364    0.053268   -0.430523    0.034517
C     0.495632    1.235517   -0.107760   -0.017760   -0.026485    0.007554
O    -1.909911   -1.315452    0.147185   -0.606265    0.170570    0.002250
O     0.386429    2.466925   -0.196236    0.454292   -0.061717   -0.009134
H     2.143644   -1.995532    0.096594    0.239395    0.712421   -0.060544
H    -0.314478   -2.473948    0.158053    0.960687   -0.224313    0.092109
H    -1.565057    1.374182   -0.058145   -0.043523   -0.568917    0.028755
H     2.638081    0.492012   -0.102556   -0.022486    0.694043   -0.056599
12
* Frequency(12)  572.0529
C     1.599362    0.161941   -0.053818    0.077966    0.455834   -0.033696
C     1.389003   -1.195363    0.056353    0.071362    0.518242   -0.044400
N     0.103880   -1.505738    0.114230    0.140094   -0.120326   -0.002509
C    -0.916961   -0.608182    0.070335   -0.249805   -0.501662    0.042071
N    -0.772802    0.724684   -0.035036    0.053268   -0.430523    0.034517
C     0.495463    1.235265   -0.107688   -0.017760   -0.026485    0.007554
O    -1.915680   -1.313829    0.147207   -0.606265    0.170570    0.002250
O     0.390751    2.466338   -0.196323    0.454292   -0.061717   -0.009134
H     2.145922   -1.988754    0.096018    0.239395    0.712421   -0.060544
H    -0.305337   -2.476082    0.158929    0.960687   -0.224313    0.092109
H    -1.565471    1.368769   -0.057872   -0.043523   -0.568917    0.028755
H     2.637867    0.498615   -0.103094   -0.022486    0.694043   -0.056599
12
* Frequency(12)  572.0529
C     1.602971    0.183038   -0.055377    0.077966    0.455834   -0.033696
C     1.392305   -1.171378    0.054298    0.071362    0.518242   -0.044400
N     0.110363   -1.511307    0.114114    0.140094   -0.120326   -0.002509
C    -0.928523   -0.631400    0.072282   -0.249805   -0.501662    0.042071
N    -0.770336    0.704759   -0.033438    0.053268   -0.430523    0.034517
C     0.494641    1.234039   -0.107338   -0.017760   -0.026485    0.007554
O    -1.943739   -1.305935    0.147311   -0.606265    0.170570    0.002250
O     0.411777    2.463482   -0.196746    0.454292   -0.061717   -0.009134
H     2.157002   -1.955782    0.093215    0.239395    0.712421   -0.060544
H    -0.260875   -2.486464    0.163192    0.960687   -0.224313    0.092109
H    -1.567485    1.342439   -0.056541   -0.043523   -0.568917    0.028755
H     2.636826    0.530737   -0.105714   -0.022486    0.694043   -0.056599
12
* Frequency(12)  572.0529
C     1.609055    0.218609   -0.058006    0.077966    0.455834   -0.033696
C     1.397874   -1.130937    0.050833    0.071362    0.518242   -0.044400
N     0.121296   -1.520696    0.113918    0.140094   -0.120326   -0.002509
C    -0.948016   -0.670546    0.075565   -0.249805   -0.501662    0.042071
N    -0.766180    0.671164   -0.030745    0.053268   -0.430523    0.034517
C     0.493255    1.231972   -0.106749   -0.017760   -0.026485    0.007554
O    -1.991048   -1.292625    0.147486   -0.606265    0.170570    0.002250
O     0.447227    2.458666   -0.197458    0.454292   -0.061717   -0.009134
H     2.175682   -1.900189    0.088491    0.239395    0.712421   -0.060544
H    -0.185909   -2.503968    0.170380    0.960687   -0.224313    0.092109
H    -1.570881    1.298044   -0.054297   -0.043523   -0.568917    0.028755
H     2.635071    0.584896   -0.110130   -0.022486    0.694043   -0.056599
12
* Frequency(12)  572.0529
C     1.616955    0.264798   -0.061421    0.077966    0.455834   -0.033696
C     1.405105   -1.078424    0.046334    0.071362    0.518242   -0.044400
N     0.135491   -1.532889    0.113664    0.140094   -0.120326   -0.002509
C    -0.973329   -0.721379    0.079828   -0.249805   -0.501662    0.042071
N    -0.760782    0.627539   -0.027247    0.053268   -0.430523    0.034517
C     0.491456    1.229288   -0.105983   -0.017760   -0.026485    0.007554
O    -2.052481   -1.275341    0.147714   -0.606265    0.170570    0.002250
O     0.493260    2.452412   -0.198384    0.454292   -0.061717   -0.009134
H     2.199940   -1.827999    0.082356    0.239395    0.712421   -0.060544
H    -0.088563   -2.526697    0.179713    0.960687   -0.224313    0.092109
H    -1.575291    1.240396   -0.051383   -0.043523   -0.568917    0.028755
H     2.632793    0.655223   -0.115865   -0.022486    0.694043   -0.056599
12
* Frequency(12)  572.0529
C     1.625816    0.316601   -0.065250    0.077966    0.455834   -0.033696
C     1.413215   -1.019528    0.041288    0.071362    0.518242   -0.044400
N     0.151412   -1.546563    0.113379    0.140094   -0.120326   -0.002509
C    -1.001718   -0.778391    0.084609   -0.249805   -0.501662    0.042071
N    -0.754728    0.578612   -0.023325    0.053268   -0.430523    0.034517
C     0.489437    1.226278   -0.105125   -0.017760   -0.026485    0.007554
O    -2.121379   -1.255957    0.147970   -0.606265    0.170570    0.002250
O     0.544888    2.445398   -0.199422    0.454292   -0.061717   -0.009134
H     2.227146   -1.747036    0.075476    0.239395    0.712421   -0.060544
H     0.020614   -2.552189    0.190181    0.960687   -0.224313    0.092109
H    -1.580237    1.175741   -0.048115   -0.043523   -0.568917    0.028755
H     2.630238    0.734097   -0.122298   -0.022486    0.694043   -0.056599
