12
* (null), Energy   -1000.0000000
C     1.625816    0.316601   -0.065250   -0.020209   -0.002313    0.152033
C     1.413215   -1.019528    0.041288    0.004958   -0.036999   -0.277869
N     0.151412   -1.546563    0.113379   -0.004486    0.053040    0.027976
C    -1.001718   -0.778391    0.084609    0.006920   -0.005343    0.030762
N    -0.754728    0.578612   -0.023325    0.023367   -0.038644   -0.013328
C     0.489437    1.226278   -0.105125   -0.010442    0.009655    0.034003
O    -2.121379   -1.255957    0.147970   -0.002361    0.001178   -0.005633
O     0.544888    2.445398   -0.199422    0.004940    0.013647   -0.006541
H     2.227146   -1.747036    0.075476    0.012686    0.066374    1.752595
H     0.020614   -2.552189    0.190181   -0.030654    0.044092   -0.167904
H    -1.580237    1.175741   -0.048115   -0.002365   -0.076502    0.010149
H     2.630238    0.734097   -0.122298   -0.059280   -0.052273   -0.877453
12
* Frequency(20)  993.3877
C     1.623519    0.316339   -0.047972   -0.020209   -0.002313    0.152033
C     1.413779   -1.023733    0.009710    0.004958   -0.036999   -0.277869
N     0.150902   -1.540536    0.116558   -0.004486    0.053040    0.027976
C    -1.000931   -0.778998    0.088105    0.006920   -0.005343    0.030762
N    -0.752073    0.574221   -0.024839    0.023367   -0.038644   -0.013328
C     0.488251    1.227376   -0.101261   -0.010442    0.009655    0.034003
O    -2.121648   -1.255823    0.147330   -0.002361    0.001178   -0.005633
O     0.545449    2.446949   -0.200165    0.004940    0.013647   -0.006541
H     2.228588   -1.739493    0.274649    0.012686    0.066374    1.752595
H     0.017131   -2.547178    0.171099   -0.030654    0.044092   -0.167904
H    -1.580506    1.167047   -0.046962   -0.002365   -0.076502    0.010149
H     2.623501    0.728157   -0.222016   -0.059280   -0.052273   -0.877453
12
* Frequency(20)  993.3877
C     1.621471    0.316104   -0.032567   -0.020209   -0.002313    0.152033
C     1.414281   -1.027482   -0.018447    0.004958   -0.036999   -0.277869
N     0.150448   -1.535161    0.119393   -0.004486    0.053040    0.027976
C    -1.000230   -0.779539    0.091222    0.006920   -0.005343    0.030762
N    -0.749705    0.570305   -0.026190    0.023367   -0.038644   -0.013328
C     0.487193    1.228354   -0.097815   -0.010442    0.009655    0.034003
O    -2.121887   -1.255704    0.146759   -0.002361    0.001178   -0.005633
O     0.545950    2.448332   -0.200828    0.004940    0.013647   -0.006541
H     2.229873   -1.732768    0.452239    0.012686    0.066374    1.752595
H     0.014025   -2.542710    0.154086   -0.030654    0.044092   -0.167904
H    -1.580746    1.159295   -0.045934   -0.002365   -0.076502    0.010149
H     2.617494    0.722860   -0.310928   -0.059280   -0.052273   -0.877453
12
* Frequency(20)  993.3877
C     1.619894    0.315924   -0.020703   -0.020209   -0.002313    0.152033
C     1.414668   -1.030369   -0.040130    0.004958   -0.036999   -0.277869
N     0.150098   -1.531022    0.121576   -0.004486    0.053040    0.027976
C    -0.999690   -0.779956    0.093623    0.006920   -0.005343    0.030762
N    -0.747882    0.567289   -0.027230    0.023367   -0.038644   -0.013328
C     0.486378    1.229107   -0.095162   -0.010442    0.009655    0.034003
O    -2.122071   -1.255612    0.146320   -0.002361    0.001178   -0.005633
O     0.546335    2.449397   -0.201338    0.004940    0.013647   -0.006541
H     2.230863   -1.727588    0.589000    0.012686    0.066374    1.752595
H     0.011633   -2.539270    0.140984   -0.030654    0.044092   -0.167904
H    -1.580930    1.153326   -0.045142   -0.002365   -0.076502    0.010149
H     2.612868    0.718781   -0.379399   -0.059280   -0.052273   -0.877453
12
* Frequency(20)  993.3877
C     1.618959    0.315817   -0.013667   -0.020209   -0.002313    0.152033
C     1.414897   -1.032082   -0.052990    0.004958   -0.036999   -0.277869
N     0.149890   -1.528568    0.122871   -0.004486    0.053040    0.027976
C    -0.999370   -0.780203    0.095046    0.006920   -0.005343    0.030762
N    -0.746800    0.565501   -0.027847    0.023367   -0.038644   -0.013328
C     0.485894    1.229554   -0.093588   -0.010442    0.009655    0.034003
O    -2.122180   -1.255557    0.146059   -0.002361    0.001178   -0.005633
O     0.546564    2.450028   -0.201641    0.004940    0.013647   -0.006541
H     2.231450   -1.724516    0.670114    0.012686    0.066374    1.752595
H     0.010214   -2.537229    0.133213   -0.030654    0.044092   -0.167904
H    -1.581040    1.149785   -0.044672   -0.002365   -0.076502    0.010149
H     2.610125    0.716361   -0.420009   -0.059280   -0.052273   -0.877453
12
* Frequency(20)  993.3877
C     1.618766    0.315795   -0.012220   -0.020209   -0.002313    0.152033
C     1.414945   -1.032434   -0.055634    0.004958   -0.036999   -0.277869
N     0.149847   -1.528063    0.123137   -0.004486    0.053040    0.027976
C    -0.999304   -0.780254    0.095339    0.006920   -0.005343    0.030762
N    -0.746578    0.565133   -0.027973    0.023367   -0.038644   -0.013328
C     0.485795    1.229646   -0.093265   -0.010442    0.009655    0.034003
O    -2.122203   -1.255546    0.146005   -0.002361    0.001178   -0.005633
O     0.546611    2.450158   -0.201703    0.004940    0.013647   -0.006541
H     2.231571   -1.723885    0.686789    0.012686    0.066374    1.752595
H     0.009922   -2.536810    0.131615   -0.030654    0.044092   -0.167904
H    -1.581062    1.149057   -0.044575   -0.002365   -0.076502    0.010149
H     2.609561    0.715864   -0.428357   -0.059280   -0.052273   -0.877453
12
* Frequency(20)  993.3877
C     1.619338    0.315860   -0.016520   -0.020209   -0.002313    0.152033
C     1.414804   -1.031387   -0.047775    0.004958   -0.036999   -0.277869
N     0.149974   -1.529563    0.122346   -0.004486    0.053040    0.027976
C    -0.999500   -0.780103    0.094469    0.006920   -0.005343    0.030762
N    -0.747239    0.566226   -0.027596    0.023367   -0.038644   -0.013328
C     0.486090    1.229373   -0.094226   -0.010442    0.009655    0.034003
O    -2.122136   -1.255579    0.146165   -0.002361    0.001178   -0.005633
O     0.546471    2.449772   -0.201518    0.004940    0.013647   -0.006541
H     2.231212   -1.725762    0.637218    0.012686    0.066374    1.752595
H     0.010789   -2.538057    0.136364   -0.030654    0.044092   -0.167904
H    -1.580995    1.151221   -0.044862   -0.002365   -0.076502    0.010149
H     2.611237    0.717343   -0.403539   -0.059280   -0.052273   -0.877453
12
* Frequency(20)  993.3877
C     1.620612    0.316006   -0.026101   -0.020209   -0.002313    0.152033
C     1.414492   -1.029056   -0.030264    0.004958   -0.036999   -0.277869
N     0.150257   -1.532905    0.120583   -0.004486    0.053040    0.027976
C    -0.999936   -0.779766    0.092531    0.006920   -0.005343    0.030762
N    -0.748711    0.568661   -0.026756    0.023367   -0.038644   -0.013328
C     0.486748    1.228765   -0.096369   -0.010442    0.009655    0.034003
O    -2.121987   -1.255653    0.146520   -0.002361    0.001178   -0.005633
O     0.546160    2.448912   -0.201106    0.004940    0.013647   -0.006541
H     2.230413   -1.729945    0.526775    0.012686    0.066374    1.752595
H     0.012721   -2.540835    0.146945   -0.030654    0.044092   -0.167904
H    -1.580846    1.156042   -0.045502   -0.002365   -0.076502    0.010149
H     2.614973    0.720637   -0.348245   -0.059280   -0.052273   -0.877453
12
* Frequency(20)  993.3877
C     1.622449    0.316216   -0.039924   -0.020209   -0.002313    0.152033
C     1.414041   -1.025692   -0.005000    0.004958   -0.036999   -0.277869
N     0.150665   -1.537728    0.118039   -0.004486    0.053040    0.027976
C    -1.000565   -0.779281    0.089734    0.006920   -0.005343    0.030762
N    -0.750836    0.572175   -0.025545    0.023367   -0.038644   -0.013328
C     0.487698    1.227887   -0.099461   -0.010442    0.009655    0.034003
O    -2.121773   -1.255761    0.147032   -0.002361    0.001178   -0.005633
O     0.545711    2.447671   -0.200512    0.004940    0.013647   -0.006541
H     2.229259   -1.735980    0.367426    0.012686    0.066374    1.752595
H     0.015508   -2.544844    0.162211   -0.030654    0.044092   -0.167904
H    -1.580631    1.162998   -0.046425   -0.002365   -0.076502    0.010149
H     2.620363    0.725389   -0.268465   -0.059280   -0.052273   -0.877453
12
* Frequency(20)  993.3877
C     1.624651    0.316468   -0.056492   -0.020209   -0.002313    0.152033
C     1.413501   -1.021660    0.025280    0.004958   -0.036999   -0.277869
N     0.151154   -1.543508    0.114991   -0.004486    0.053040    0.027976
C    -1.001319   -0.778699    0.086381    0.006920   -0.005343    0.030762
N    -0.753382    0.576386   -0.024092    0.023367   -0.038644   -0.013328
C     0.488836    1.226835   -0.103166   -0.010442    0.009655    0.034003
O    -2.121515   -1.255889    0.147646   -0.002361    0.001178   -0.005633
O     0.545172    2.446184   -0.199799    0.004940    0.013647   -0.006541
H     2.227877   -1.743213    0.176439    0.012686    0.066374    1.752595
H     0.018848   -2.549649    0.180508   -0.030654    0.044092   -0.167904
H    -1.580374    1.171334   -0.047531   -0.002365   -0.076502    0.010149
H     2.626823    0.731086   -0.172846   -0.059280   -0.052273   -0.877453
12
* Frequency(20)  993.3877
C     1.626980    0.316735   -0.074008   -0.020209   -0.002313    0.152033
C     1.412929   -1.017397    0.057295    0.004958   -0.036999   -0.277869
N     0.151671   -1.549619    0.111767   -0.004486    0.053040    0.027976
C    -1.002116   -0.778083    0.082837    0.006920   -0.005343    0.030762
N    -0.756074    0.580838   -0.022557    0.023367   -0.038644   -0.013328
C     0.490039    1.225722   -0.107084   -0.010442    0.009655    0.034003
O    -2.121243   -1.256025    0.148295   -0.002361    0.001178   -0.005633
O     0.544603    2.444612   -0.199045    0.004940    0.013647   -0.006541
H     2.226415   -1.750860   -0.025488    0.012686    0.066374    1.752595
H     0.022380   -2.554729    0.199854   -0.030654    0.044092   -0.167904
H    -1.580101    1.180149   -0.048700   -0.002365   -0.076502    0.010149
H     2.633653    0.737108   -0.071749   -0.059280   -0.052273   -0.877453
12
* Frequency(20)  993.3877
C     1.629182    0.316987   -0.090576   -0.020209   -0.002313    0.152033
C     1.412389   -1.013365    0.087576    0.004958   -0.036999   -0.277869
N     0.152159   -1.555399    0.108719   -0.004486    0.053040    0.027976
C    -1.002870   -0.777501    0.079485    0.006920   -0.005343    0.030762
N    -0.758621    0.585050   -0.021104    0.023367   -0.038644   -0.013328
C     0.491177    1.224670   -0.110789   -0.010442    0.009655    0.034003
O    -2.120986   -1.256153    0.148909   -0.002361    0.001178   -0.005633
O     0.544065    2.443125   -0.198332    0.004940    0.013647   -0.006541
H     2.225033   -1.758093   -0.216474    0.012686    0.066374    1.752595
H     0.025721   -2.559534    0.218151   -0.030654    0.044092   -0.167904
H    -1.579844    1.188485   -0.049806   -0.002365   -0.076502    0.010149
H     2.640113    0.742805    0.023870   -0.059280   -0.052273   -0.877453
12
* Frequency(20)  993.3877
C     1.631019    0.317197   -0.104399   -0.020209   -0.002313    0.152033
C     1.411938   -1.010001    0.112840    0.004958   -0.036999   -0.277869
N     0.152567   -1.560221    0.106175   -0.004486    0.053040    0.027976
C    -1.003500   -0.777015    0.076688    0.006920   -0.005343    0.030762
N    -0.760746    0.588563   -0.019893    0.023367   -0.038644   -0.013328
C     0.492126    1.223792   -0.113881   -0.010442    0.009655    0.034003
O    -2.120771   -1.256260    0.149421   -0.002361    0.001178   -0.005633
O     0.543616    2.441884   -0.197738    0.004940    0.013647   -0.006541
H     2.223880   -1.764128   -0.375823    0.012686    0.066374    1.752595
H     0.028508   -2.563543    0.233417   -0.030654    0.044092   -0.167904
H    -1.579629    1.195441   -0.050729   -0.002365   -0.076502    0.010149
H     2.645502    0.747558    0.103650   -0.059280   -0.052273   -0.877453
12
* Frequency(20)  993.3877
C     1.632293    0.317343   -0.113980   -0.020209   -0.002313    0.152033
C     1.411626   -1.007670    0.130351    0.004958   -0.036999   -0.277869
N     0.152850   -1.563564    0.104412   -0.004486    0.053040    0.027976
C    -1.003936   -0.776678    0.074750    0.006920   -0.005343    0.030762
N    -0.762218    0.590998   -0.019053    0.023367   -0.038644   -0.013328
C     0.492784    1.223184   -0.116023   -0.010442    0.009655    0.034003
O    -2.120623   -1.256334    0.149776   -0.002361    0.001178   -0.005633
O     0.543305    2.441024   -0.197325    0.004940    0.013647   -0.006541
H     2.223080   -1.768310   -0.486267    0.012686    0.066374    1.752595
H     0.030440   -2.566321    0.243998   -0.030654    0.044092   -0.167904
H    -1.579480    1.200262   -0.051368   -0.002365   -0.076502    0.010149
H     2.649238    0.750852    0.158944   -0.059280   -0.052273   -0.877453
12
* Frequency(20)  993.3877
C     1.632865    0.317408   -0.118280   -0.020209   -0.002313    0.152033
C     1.411486   -1.006623    0.138210    0.004958   -0.036999   -0.277869
N     0.152977   -1.565064    0.103621   -0.004486    0.053040    0.027976
C    -1.004131   -0.776527    0.073880    0.006920   -0.005343    0.030762
N    -0.762879    0.592091   -0.018676    0.023367   -0.038644   -0.013328
C     0.493079    1.222911   -0.116985   -0.010442    0.009655    0.034003
O    -2.120556   -1.256368    0.149935   -0.002361    0.001178   -0.005633
O     0.543165    2.440638   -0.197140    0.004940    0.013647   -0.006541
H     2.222721   -1.770188   -0.535837    0.012686    0.066374    1.752595
H     0.031307   -2.567568    0.248747   -0.030654    0.044092   -0.167904
H    -1.579413    1.202426   -0.051655   -0.002365   -0.076502    0.010149
H     2.650915    0.752330    0.183762   -0.059280   -0.052273   -0.877453
12
* Frequency(20)  993.3877
C     1.632672    0.317386   -0.116833   -0.020209   -0.002313    0.152033
C     1.411533   -1.006975    0.135566    0.004958   -0.036999   -0.277869
N     0.152934   -1.564559    0.103887   -0.004486    0.053040    0.027976
C    -1.004066   -0.776578    0.074172    0.006920   -0.005343    0.030762
N    -0.762657    0.591724   -0.018803    0.023367   -0.038644   -0.013328
C     0.492980    1.223002   -0.116662   -0.010442    0.009655    0.034003
O    -2.120578   -1.256356    0.149881   -0.002361    0.001178   -0.005633
O     0.543212    2.440768   -0.197203    0.004940    0.013647   -0.006541
H     2.222842   -1.769556   -0.519162    0.012686    0.066374    1.752595
H     0.031015   -2.567149    0.247149   -0.030654    0.044092   -0.167904
H    -1.579435    1.201698   -0.051559   -0.002365   -0.076502    0.010149
H     2.650351    0.751833    0.175414   -0.059280   -0.052273   -0.877453
12
* Frequency(20)  993.3877
C     1.631737    0.317279   -0.109797   -0.020209   -0.002313    0.152033
C     1.411762   -1.008687    0.122706    0.004958   -0.036999   -0.277869
N     0.152726   -1.562104    0.105182   -0.004486    0.053040    0.027976
C    -1.003745   -0.776825    0.075596    0.006920   -0.005343    0.030762
N    -0.761575    0.589935   -0.019419    0.023367   -0.038644   -0.013328
C     0.492497    1.223449   -0.115088   -0.010442    0.009655    0.034003
O    -2.120688   -1.256302    0.149621   -0.002361    0.001178   -0.005633
O     0.543440    2.441399   -0.197505    0.004940    0.013647   -0.006541
H     2.223429   -1.766484   -0.438049    0.012686    0.066374    1.752595
H     0.029596   -2.565108    0.239378   -0.030654    0.044092   -0.167904
H    -1.579545    1.198157   -0.051089   -0.002365   -0.076502    0.010149
H     2.647607    0.749414    0.134803   -0.059280   -0.052273   -0.877453
12
* Frequency(20)  993.3877
C     1.630160    0.317099   -0.097933   -0.020209   -0.002313    0.152033
C     1.412149   -1.011575    0.101023    0.004958   -0.036999   -0.277869
N     0.152376   -1.557965    0.107365   -0.004486    0.053040    0.027976
C    -1.003205   -0.777242    0.077996    0.006920   -0.005343    0.030762
N    -0.759752    0.586920   -0.020459    0.023367   -0.038644   -0.013328
C     0.491682    1.224203   -0.112435   -0.010442    0.009655    0.034003
O    -2.120872   -1.256210    0.149181   -0.002361    0.001178   -0.005633
O     0.543826    2.442464   -0.198016    0.004940    0.013647   -0.006541
H     2.224419   -1.761305   -0.301287    0.012686    0.066374    1.752595
H     0.027204   -2.561668    0.226276   -0.030654    0.044092   -0.167904
H    -1.579729    1.192187   -0.050297   -0.002365   -0.076502    0.010149
H     2.642981    0.745334    0.066332   -0.059280   -0.052273   -0.877453
12
* Frequency(20)  993.3877
C     1.628112    0.316864   -0.082528   -0.020209   -0.002313    0.152033
C     1.412652   -1.015324    0.072866    0.004958   -0.036999   -0.277869
N     0.151922   -1.552591    0.110200   -0.004486    0.053040    0.027976
C    -1.002504   -0.777784    0.081113    0.006920   -0.005343    0.030762
N    -0.757384    0.583004   -0.021810    0.023367   -0.038644   -0.013328
C     0.490624    1.225181   -0.108989   -0.010442    0.009655    0.034003
O    -2.121111   -1.256091    0.148610   -0.002361    0.001178   -0.005633
O     0.544326    2.443847   -0.198679    0.004940    0.013647   -0.006541
H     2.225705   -1.754579   -0.123698    0.012686    0.066374    1.752595
H     0.024098   -2.557200    0.209262   -0.030654    0.044092   -0.167904
H    -1.579969    1.184435   -0.049269   -0.002365   -0.076502    0.010149
H     2.636974    0.740038   -0.022580   -0.059280   -0.052273   -0.877453
12
* Frequency(20)  993.3877
C     1.625816    0.316601   -0.065250   -0.020209   -0.002313    0.152033
C     1.413215   -1.019528    0.041288    0.004958   -0.036999   -0.277869
N     0.151412   -1.546563    0.113379   -0.004486    0.053040    0.027976
C    -1.001718   -0.778391    0.084609    0.006920   -0.005343    0.030762
N    -0.754728    0.578612   -0.023325    0.023367   -0.038644   -0.013328
C     0.489437    1.226278   -0.105125   -0.010442    0.009655    0.034003
O    -2.121379   -1.255957    0.147970   -0.002361    0.001178   -0.005633
O     0.544888    2.445398   -0.199422    0.004940    0.013647   -0.006541
H     2.227146   -1.747036    0.075476    0.012686    0.066374    1.752595
H     0.020614   -2.552189    0.190181   -0.030654    0.044092   -0.167904
H    -1.580237    1.175741   -0.048115   -0.002365   -0.076502    0.010149
H     2.630238    0.734097   -0.122298   -0.059280   -0.052273   -0.877453
