12
* (null), Energy   -1000.0000000
C     1.321514    0.518496   -0.072777   -0.047183   -0.010242    0.001985
C     1.109175   -0.817930    0.032797    0.124936   -0.114843    0.005523
N    -0.152373   -1.344381    0.103578   -0.002732    0.000767    0.000007
C    -1.303319   -0.575774    0.076278   -0.002832    0.000983    0.000000
N    -1.058010    0.780216   -0.032013    0.000138   -0.000233    0.000014
C     0.185580    1.426809   -0.112240    0.001072    0.000060   -0.000026
O    -2.424404   -1.053547    0.141169    0.000655    0.000085   -0.000023
O     0.240353    2.647240   -0.204710   -0.000156   -0.000129    0.000013
H     1.922616   -1.545424    0.067591   -1.422704    1.265496   -0.060040
H    -0.283402   -2.349496    0.186263    0.007528   -0.013125    0.000893
H    -1.883441    1.377385   -0.056304   -0.001475    0.000532   -0.000007
H     2.325711    0.936406   -0.129663    0.539268    0.218396   -0.030148
12
* Frequency(32) 3221.5921
C     1.316152    0.517332   -0.072551   -0.047183   -0.010242    0.001985
C     1.123374   -0.830981    0.033425    0.124936   -0.114843    0.005523
N    -0.152684   -1.344294    0.103579   -0.002732    0.000767    0.000007
C    -1.303641   -0.575662    0.076278   -0.002832    0.000983    0.000000
N    -1.057995    0.780190   -0.032011    0.000138   -0.000233    0.000014
C     0.185702    1.426815   -0.112243    0.001072    0.000060   -0.000026
O    -2.424330   -1.053537    0.141166    0.000655    0.000085   -0.000023
O     0.240336    2.647225   -0.204709   -0.000156   -0.000129    0.000013
H     1.760933   -1.401607    0.060768   -1.422704    1.265496   -0.060040
H    -0.282546   -2.350988    0.186365    0.007528   -0.013125    0.000893
H    -1.883608    1.377446   -0.056305   -0.001475    0.000532   -0.000007
H     2.386996    0.961226   -0.133089    0.539268    0.218396   -0.030148
12
* Frequency(32) 3221.5921
C     1.311371    0.516294   -0.072350   -0.047183   -0.010242    0.001985
C     1.136033   -0.842618    0.033985    0.124936   -0.114843    0.005523
N    -0.152961   -1.344216    0.103580   -0.002732    0.000767    0.000007
C    -1.303928   -0.575563    0.076278   -0.002832    0.000983    0.000000
N    -1.057981    0.780166   -0.032010    0.000138   -0.000233    0.000014
C     0.185810    1.426821   -0.112245    0.001072    0.000060   -0.000026
O    -2.424264   -1.053528    0.141164    0.000655    0.000085   -0.000023
O     0.240320    2.647212   -0.204707   -0.000156   -0.000129    0.000013
H     1.616771   -1.273375    0.054684   -1.422704    1.265496   -0.060040
H    -0.281783   -2.352318    0.186455    0.007528   -0.013125    0.000893
H    -1.883758    1.377500   -0.056306   -0.001475    0.000532   -0.000007
H     2.441640    0.983356   -0.136144    0.539268    0.218396   -0.030148
12
* Frequency(32) 3221.5921
C     1.307689    0.515495   -0.072195   -0.047183   -0.010242    0.001985
C     1.145783   -0.851580    0.034416    0.124936   -0.114843    0.005523
N    -0.153174   -1.344156    0.103581   -0.002732    0.000767    0.000007
C    -1.304149   -0.575486    0.076278   -0.002832    0.000983    0.000000
N    -1.057970    0.780148   -0.032008    0.000138   -0.000233    0.000014
C     0.185894    1.426826   -0.112247    0.001072    0.000060   -0.000026
O    -2.424213   -1.053522    0.141162    0.000655    0.000085   -0.000023
O     0.240308    2.647202   -0.204706   -0.000156   -0.000129    0.000013
H     1.505752   -1.174623    0.049999   -1.422704    1.265496   -0.060040
H    -0.281196   -2.353342    0.186525    0.007528   -0.013125    0.000893
H    -1.883873    1.377541   -0.056306   -0.001475    0.000532   -0.000007
H     2.483721    1.000398   -0.138497    0.539268    0.218396   -0.030148
12
* Frequency(32) 3221.5921
C     1.305505    0.515021   -0.072103   -0.047183   -0.010242    0.001985
C     1.151565   -0.856895    0.034671    0.124936   -0.114843    0.005523
N    -0.153300   -1.344121    0.103581   -0.002732    0.000767    0.000007
C    -1.304280   -0.575440    0.076278   -0.002832    0.000983    0.000000
N    -1.057963    0.780137   -0.032008    0.000138   -0.000233    0.000014
C     0.185944    1.426829   -0.112249    0.001072    0.000060   -0.000026
O    -2.424182   -1.053518    0.141161    0.000655    0.000085   -0.000023
O     0.240301    2.647196   -0.204706   -0.000156   -0.000129    0.000013
H     1.439907   -1.116054    0.047220   -1.422704    1.265496   -0.060040
H    -0.280847   -2.353950    0.186566    0.007528   -0.013125    0.000893
H    -1.883941    1.377566   -0.056307   -0.001475    0.000532   -0.000007
H     2.508679    1.010506   -0.139892    0.539268    0.218396   -0.030148
12
* Frequency(32) 3221.5921
C     1.305056    0.514924   -0.072084   -0.047183   -0.010242    0.001985
C     1.152754   -0.857988    0.034724    0.124936   -0.114843    0.005523
N    -0.153326   -1.344114    0.103581   -0.002732    0.000767    0.000007
C    -1.304307   -0.575431    0.076278   -0.002832    0.000983    0.000000
N    -1.057962    0.780135   -0.032008    0.000138   -0.000233    0.000014
C     0.185954    1.426830   -0.112249    0.001072    0.000060   -0.000026
O    -2.424176   -1.053517    0.141161    0.000655    0.000085   -0.000023
O     0.240299    2.647195   -0.204706   -0.000156   -0.000129    0.000013
H     1.426371   -1.104013    0.046649   -1.422704    1.265496   -0.060040
H    -0.280776   -2.354075    0.186575    0.007528   -0.013125    0.000893
H    -1.883955    1.377571   -0.056307   -0.001475    0.000532   -0.000007
H     2.513810    1.012584   -0.140179    0.539268    0.218396   -0.030148
12
* Frequency(32) 3221.5921
C     1.306391    0.515213   -0.072140   -0.047183   -0.010242    0.001985
C     1.149220   -0.854740    0.034567    0.124936   -0.114843    0.005523
N    -0.153249   -1.344135    0.103581   -0.002732    0.000767    0.000007
C    -1.304227   -0.575459    0.076278   -0.002832    0.000983    0.000000
N    -1.057966    0.780142   -0.032008    0.000138   -0.000233    0.000014
C     0.185923    1.426828   -0.112248    0.001072    0.000060   -0.000026
O    -2.424195   -1.053519    0.141161    0.000655    0.000085   -0.000023
O     0.240303    2.647198   -0.204706   -0.000156   -0.000129    0.000013
H     1.466610   -1.139806    0.048347   -1.422704    1.265496   -0.060040
H    -0.280989   -2.353703    0.186550    0.007528   -0.013125    0.000893
H    -1.883914    1.377556   -0.056307   -0.001475    0.000532   -0.000007
H     2.498557    1.006407   -0.139326    0.539268    0.218396   -0.030148
12
* Frequency(32) 3221.5921
C     1.309364    0.515859   -0.072265   -0.047183   -0.010242    0.001985
C     1.141347   -0.847502    0.034219    0.124936   -0.114843    0.005523
N    -0.153077   -1.344184    0.103580   -0.002732    0.000767    0.000007
C    -1.304048   -0.575521    0.076278   -0.002832    0.000983    0.000000
N    -1.057975    0.780156   -0.032009    0.000138   -0.000233    0.000014
C     0.185856    1.426824   -0.112246    0.001072    0.000060   -0.000026
O    -2.424236   -1.053525    0.141163    0.000655    0.000085   -0.000023
O     0.240313    2.647207   -0.204707   -0.000156   -0.000129    0.000013
H     1.556265   -1.219555    0.052130   -1.422704    1.265496   -0.060040
H    -0.281463   -2.352876    0.186493    0.007528   -0.013125    0.000893
H    -1.883821    1.377522   -0.056306   -0.001475    0.000532   -0.000007
H     2.464574    0.992644   -0.137426    0.539268    0.218396   -0.030148
12
* Frequency(32) 3221.5921
C     1.313654    0.516790   -0.072446   -0.047183   -0.010242    0.001985
C     1.129987   -0.837061    0.033717    0.124936   -0.114843    0.005523
N    -0.152829   -1.344253    0.103580   -0.002732    0.000767    0.000007
C    -1.303791   -0.575610    0.076278   -0.002832    0.000983    0.000000
N    -1.057987    0.780178   -0.032010    0.000138   -0.000233    0.000014
C     0.185758    1.426819   -0.112244    0.001072    0.000060   -0.000026
O    -2.424295   -1.053532    0.141165    0.000655    0.000085   -0.000023
O     0.240327    2.647218   -0.204708   -0.000156   -0.000129    0.000013
H     1.685620   -1.334616    0.057589   -1.422704    1.265496   -0.060040
H    -0.282147   -2.351683    0.186412    0.007528   -0.013125    0.000893
H    -1.883686    1.377474   -0.056306   -0.001475    0.000532   -0.000007
H     2.415543    0.972787   -0.134685    0.539268    0.218396   -0.030148
12
* Frequency(32) 3221.5921
C     1.318796    0.517906   -0.072662   -0.047183   -0.010242    0.001985
C     1.116373   -0.824546    0.033115    0.124936   -0.114843    0.005523
N    -0.152531   -1.344337    0.103579   -0.002732    0.000767    0.000007
C    -1.303482   -0.575717    0.076278   -0.002832    0.000983    0.000000
N    -1.058002    0.780203   -0.032012    0.000138   -0.000233    0.000014
C     0.185642    1.426812   -0.112241    0.001072    0.000060   -0.000026
O    -2.424367   -1.053542    0.141167    0.000655    0.000085   -0.000023
O     0.240344    2.647232   -0.204709   -0.000156   -0.000129    0.000013
H     1.840657   -1.472521    0.064132   -1.422704    1.265496   -0.060040
H    -0.282968   -2.350253    0.186315    0.007528   -0.013125    0.000893
H    -1.883526    1.377416   -0.056305   -0.001475    0.000532   -0.000007
H     2.356777    0.948988   -0.131400    0.539268    0.218396   -0.030148
12
* Frequency(32) 3221.5921
C     1.324232    0.519086   -0.072891   -0.047183   -0.010242    0.001985
C     1.101978   -0.811314    0.032479    0.124936   -0.114843    0.005523
N    -0.152216   -1.344425    0.103578   -0.002732    0.000767    0.000007
C    -1.303156   -0.575831    0.076278   -0.002832    0.000983    0.000000
N    -1.058018    0.780230   -0.032013    0.000138   -0.000233    0.000014
C     0.185518    1.426805   -0.112238    0.001072    0.000060   -0.000026
O    -2.424442   -1.053552    0.141170    0.000655    0.000085   -0.000023
O     0.240362    2.647247   -0.204711   -0.000156   -0.000129    0.000013
H     2.004575   -1.618327    0.071050   -1.422704    1.265496   -0.060040
H    -0.283835   -2.348740    0.186212    0.007528   -0.013125    0.000893
H    -1.883356    1.377354   -0.056304   -0.001475    0.000532   -0.000007
H     2.294645    0.923825   -0.127926    0.539268    0.218396   -0.030148
12
* Frequency(32) 3221.5921
C     1.329374    0.520202   -0.073107   -0.047183   -0.010242    0.001985
C     1.088363   -0.798799    0.031877    0.124936   -0.114843    0.005523
N    -0.151918   -1.344509    0.103577   -0.002732    0.000767    0.000007
C    -1.302847   -0.575938    0.076278   -0.002832    0.000983    0.000000
N    -1.058033    0.780255   -0.032015    0.000138   -0.000233    0.000014
C     0.185401    1.426799   -0.112235    0.001072    0.000060   -0.000026
O    -2.424513   -1.053561    0.141173    0.000655    0.000085   -0.000023
O     0.240379    2.647261   -0.204712   -0.000156   -0.000129    0.000013
H     2.159612   -1.756232    0.077593   -1.422704    1.265496   -0.060040
H    -0.284656   -2.347310    0.186115    0.007528   -0.013125    0.000893
H    -1.883195    1.377296   -0.056303   -0.001475    0.000532   -0.000007
H     2.235879    0.900025   -0.124641    0.539268    0.218396   -0.030148
12
* Frequency(32) 3221.5921
C     1.333663    0.521134   -0.073288   -0.047183   -0.010242    0.001985
C     1.077004   -0.788358    0.031375    0.124936   -0.114843    0.005523
N    -0.151670   -1.344579    0.103576   -0.002732    0.000767    0.000007
C    -1.302590   -0.576027    0.076278   -0.002832    0.000983    0.000000
N    -1.058046    0.780276   -0.032016    0.000138   -0.000233    0.000014
C     0.185304    1.426793   -0.112233    0.001072    0.000060   -0.000026
O    -2.424573   -1.053569    0.141175    0.000655    0.000085   -0.000023
O     0.240394    2.647273   -0.204714   -0.000156   -0.000129    0.000013
H     2.288967   -1.871293    0.083052   -1.422704    1.265496   -0.060040
H    -0.285340   -2.346117    0.186033    0.007528   -0.013125    0.000893
H    -1.883061    1.377248   -0.056303   -0.001475    0.000532   -0.000007
H     2.186847    0.880168   -0.121900    0.539268    0.218396   -0.030148
12
* Frequency(32) 3221.5921
C     1.336637    0.521779   -0.073413   -0.047183   -0.010242    0.001985
C     1.069131   -0.781121    0.031027    0.124936   -0.114843    0.005523
N    -0.151498   -1.344627    0.103576   -0.002732    0.000767    0.000007
C    -1.302411   -0.576089    0.076278   -0.002832    0.000983    0.000000
N    -1.058054    0.780291   -0.032017    0.000138   -0.000233    0.000014
C     0.185236    1.426789   -0.112231    0.001072    0.000060   -0.000026
O    -2.424614   -1.053574    0.141176    0.000655    0.000085   -0.000023
O     0.240403    2.647281   -0.204714   -0.000156   -0.000129    0.000013
H     2.378622   -1.951042    0.086835   -1.422704    1.265496   -0.060040
H    -0.285815   -2.345289    0.185977    0.007528   -0.013125    0.000893
H    -1.882968    1.377214   -0.056302   -0.001475    0.000532   -0.000007
H     2.152864    0.866406   -0.120000    0.539268    0.218396   -0.030148
12
* Frequency(32) 3221.5921
C     1.337971    0.522069   -0.073469   -0.047183   -0.010242    0.001985
C     1.065597   -0.777872    0.030871    0.124936   -0.114843    0.005523
N    -0.151420   -1.344649    0.103576   -0.002732    0.000767    0.000007
C    -1.302331   -0.576117    0.076278   -0.002832    0.000983    0.000000
N    -1.058058    0.780297   -0.032018    0.000138   -0.000233    0.000014
C     0.185206    1.426788   -0.112230    0.001072    0.000060   -0.000026
O    -2.424633   -1.053576    0.141177    0.000655    0.000085   -0.000023
O     0.240408    2.647285   -0.204715   -0.000156   -0.000129    0.000013
H     2.418862   -1.986835    0.088533   -1.422704    1.265496   -0.060040
H    -0.286027   -2.344918    0.185952    0.007528   -0.013125    0.000893
H    -1.882926    1.377199   -0.056302   -0.001475    0.000532   -0.000007
H     2.137612    0.860229   -0.119147    0.539268    0.218396   -0.030148
12
* Frequency(32) 3221.5921
C     1.337522    0.521971   -0.073450   -0.047183   -0.010242    0.001985
C     1.066786   -0.778965    0.030923    0.124936   -0.114843    0.005523
N    -0.151446   -1.344642    0.103576   -0.002732    0.000767    0.000007
C    -1.302358   -0.576108    0.076278   -0.002832    0.000983    0.000000
N    -1.058057    0.780295   -0.032017    0.000138   -0.000233    0.000014
C     0.185216    1.426788   -0.112231    0.001072    0.000060   -0.000026
O    -2.424627   -1.053576    0.141176    0.000655    0.000085   -0.000023
O     0.240406    2.647284   -0.204715   -0.000156   -0.000129    0.000013
H     2.405325   -1.974794    0.087962   -1.422704    1.265496   -0.060040
H    -0.285956   -2.345043    0.185960    0.007528   -0.013125    0.000893
H    -1.882940    1.377204   -0.056302   -0.001475    0.000532   -0.000007
H     2.142742    0.862307   -0.119434    0.539268    0.218396   -0.030148
12
* Frequency(32) 3221.5921
C     1.335339    0.521497   -0.073359   -0.047183   -0.010242    0.001985
C     1.072568   -0.784280    0.031179    0.124936   -0.114843    0.005523
N    -0.151573   -1.344606    0.103576   -0.002732    0.000767    0.000007
C    -1.302489   -0.576062    0.076278   -0.002832    0.000983    0.000000
N    -1.058051    0.780285   -0.032017    0.000138   -0.000233    0.000014
C     0.185266    1.426791   -0.112232    0.001072    0.000060   -0.000026
O    -2.424596   -1.053572    0.141175    0.000655    0.000085   -0.000023
O     0.240399    2.647278   -0.204714   -0.000156   -0.000129    0.000013
H     2.339480   -1.916225    0.085183   -1.422704    1.265496   -0.060040
H    -0.285607   -2.345651    0.186002    0.007528   -0.013125    0.000893
H    -1.883009    1.377229   -0.056302   -0.001475    0.000532   -0.000007
H     2.167701    0.872414   -0.120830    0.539268    0.218396   -0.030148
12
* Frequency(32) 3221.5921
C     1.331657    0.520698   -0.073204   -0.047183   -0.010242    0.001985
C     1.082317   -0.793242    0.031610    0.124936   -0.114843    0.005523
N    -0.151786   -1.344546    0.103577   -0.002732    0.000767    0.000007
C    -1.302710   -0.575985    0.076278   -0.002832    0.000983    0.000000
N    -1.058040    0.780266   -0.032016    0.000138   -0.000233    0.000014
C     0.185349    1.426796   -0.112234    0.001072    0.000060   -0.000026
O    -2.424545   -1.053565    0.141174    0.000655    0.000085   -0.000023
O     0.240387    2.647268   -0.204713   -0.000156   -0.000129    0.000013
H     2.228461   -1.817473    0.080498   -1.422704    1.265496   -0.060040
H    -0.285020   -2.346675    0.186071    0.007528   -0.013125    0.000893
H    -1.883124    1.377271   -0.056303   -0.001475    0.000532   -0.000007
H     2.209782    0.889457   -0.123182    0.539268    0.218396   -0.030148
12
* Frequency(32) 3221.5921
C     1.326876    0.519660   -0.073002   -0.047183   -0.010242    0.001985
C     1.094977   -0.804879    0.032169    0.124936   -0.114843    0.005523
N    -0.152063   -1.344468    0.103578   -0.002732    0.000767    0.000007
C    -1.302997   -0.575886    0.076278   -0.002832    0.000983    0.000000
N    -1.058026    0.780243   -0.032014    0.000138   -0.000233    0.000014
C     0.185458    1.426802   -0.112237    0.001072    0.000060   -0.000026
O    -2.424479   -1.053556    0.141171    0.000655    0.000085   -0.000023
O     0.240371    2.647255   -0.204712   -0.000156   -0.000129    0.000013
H     2.084299   -1.689241    0.074414   -1.422704    1.265496   -0.060040
H    -0.284257   -2.348005    0.186162    0.007528   -0.013125    0.000893
H    -1.883273    1.377325   -0.056304   -0.001475    0.000532   -0.000007
H     2.264426    0.911587   -0.126237    0.539268    0.218396   -0.030148
12
* Frequency(32) 3221.5921
C     1.321514    0.518496   -0.072777   -0.047183   -0.010242    0.001985
C     1.109175   -0.817930    0.032797    0.124936   -0.114843    0.005523
N    -0.152373   -1.344381    0.103578   -0.002732    0.000767    0.000007
C    -1.303319   -0.575774    0.076278   -0.002832    0.000983    0.000000
N    -1.058010    0.780216   -0.032013    0.000138   -0.000233    0.000014
C     0.185580    1.426809   -0.112240    0.001072    0.000060   -0.000026
O    -2.424404   -1.053547    0.141169    0.000655    0.000085   -0.000023
O     0.240353    2.647240   -0.204710   -0.000156   -0.000129    0.000013
H     1.922616   -1.545424    0.067591   -1.422704    1.265496   -0.060040
H    -0.283402   -2.349496    0.186263    0.007528   -0.013125    0.000893
H    -1.883441    1.377385   -0.056304   -0.001475    0.000532   -0.000007
H     2.325711    0.936406   -0.129663    0.539268    0.218396   -0.030148
