12
Coordinates from ORCA-job Uracil_0 E -414.316698299227
  C       1.324730      0.495160     -0.070940
  C       1.138940     -0.837420      0.034180
  N      -0.149430     -1.388020      0.108550
  C      -1.307300     -0.554680      0.075070
  N      -1.121180      0.846280     -0.035250
  C       0.189280      1.421250     -0.111920
  O      -2.423220     -1.055480      0.141140
  O       0.239830      2.636540     -0.204920
  H       1.974690     -1.549090      0.066500
  H      -0.263970     -2.373230      0.185460
  H      -1.931360      1.430000     -0.058700
  H       2.328990      0.928690     -0.129200
12
Coordinates from ORCA-job Uracil_0 E -414.325195406337
  C       1.318142      0.507938     -0.071757
  C       1.117420     -0.824566      0.033863
  N      -0.152702     -1.356143      0.106381
  C      -1.298191     -0.563839      0.075820
  N      -1.082407      0.804182     -0.032897
  C       0.190556      1.423392     -0.112151
  O      -2.412528     -1.055553      0.140798
  O       0.252979      2.641288     -0.205729
  H       1.938027     -1.544437      0.067120
  H      -0.277835     -2.362343      0.184629
  H      -1.911891      1.394180     -0.056613
  H       2.318430      0.935901     -0.129495
12
Coordinates from ORCA-job Uracil_0 E -414.326344951565
  C       1.318582      0.515985     -0.072437
  C       1.108491     -0.819369      0.033875
  N      -0.153432     -1.342135      0.105410
  C      -1.300373     -0.572252      0.076296
  N      -1.060163      0.781581     -0.031502
  C       0.187978      1.426005     -0.112374
  O      -2.419666     -1.054479      0.141047
  O       0.249428      2.645181     -0.206253
  H       1.922795     -1.545940      0.067946
  H      -0.283905     -2.347863      0.183169
  H      -1.889685      1.372964     -0.055348
  H       2.319951      0.940323     -0.129858
12
Coordinates from ORCA-job Uracil_0 E -414.326416362070
  C       1.320816      0.517276     -0.072525
  C       1.109571     -0.819082      0.033894
  N      -0.152723     -1.343637      0.105692
  C      -1.303689     -0.574526      0.077203
  N      -1.058808      0.781061     -0.031126
  C       0.186810      1.427496     -0.112505
  O      -2.423966     -1.054110      0.140670
  O       0.245536      2.646685     -0.206662
  H       1.923715     -1.546145      0.067920
  H      -0.283652     -2.349486      0.182871
  H      -1.886860      1.374989     -0.055584
  H       2.323249      0.939480     -0.129878
12
Coordinates from ORCA-job Uracil_0 E -414.326427311777
  C       1.322086      0.518115     -0.072828
  C       1.109818     -0.818291      0.033806
  N      -0.152380     -1.344583      0.105650
  C      -1.305424     -0.576188      0.075957
  N      -1.058292      0.780701     -0.031163
  C       0.185899      1.428174     -0.112561
  O      -2.425345     -1.053744      0.141248
  O       0.242167      2.647282     -0.206530
  H       1.923794     -1.545697      0.068305
  H      -0.283414     -2.350157      0.183130
  H      -1.884636      1.376793     -0.055247
  H       2.325727      0.937596     -0.129798
12
Coordinates from ORCA-job Uracil_0 E -414.326430383379
  C       1.322261      0.518473     -0.072503
  C       1.109633     -0.817749      0.033900
  N      -0.152293     -1.344717      0.106149
  C      -1.305590     -0.576429      0.078629
  N      -1.058317      0.780583     -0.030492
  C       0.185661      1.428256     -0.112571
  O      -2.425335     -1.053946      0.139769
  O       0.241090      2.647315     -0.207198
  H       1.923536     -1.545316      0.067696
  H      -0.283223     -2.350340      0.182332
  H      -1.883945      1.377499     -0.055957
  H       2.326522      0.936369     -0.129785
12
Coordinates from ORCA-job Uracil_0 E -414.326431206132
  C       1.322090      0.518513     -0.072700
  C       1.109490     -0.817617      0.033838
  N      -0.152313     -1.344652      0.105929
  C      -1.305443     -0.576479      0.077159
  N      -1.058454      0.780524     -0.030774
  C       0.185712      1.428190     -0.112575
  O      -2.425105     -1.054045      0.140520
  O       0.241163      2.647309     -0.206872
  H       1.923421     -1.545125      0.068026
  H      -0.283111     -2.350278      0.182731
  H      -1.883963      1.377653     -0.055565
  H       2.326512      0.936008     -0.129747
