12
* (null), Energy   -1000.0000000
C     1.321514    0.518496   -0.072777    0.006691    0.009058    0.045780
C     1.109175   -0.817930    0.032797   -0.002817    0.001044   -0.079749
N    -0.152373   -1.344381    0.103578   -0.004018   -0.010900   -0.136742
C    -1.303319   -0.575774    0.076278   -0.006584   -0.007718   -0.036552
N    -1.058010    0.780216   -0.032013    0.004212   -0.000201    0.064235
C     0.185580    1.426809   -0.112240    0.006927    0.009478    0.121925
O    -2.424404   -1.053547    0.141169   -0.008257   -0.002963   -0.011376
O     0.240353    2.647240   -0.204710    0.001915   -0.002872   -0.039897
H     1.922616   -1.545424    0.067591   -0.002834    0.000691   -0.086371
H    -0.283402   -2.349496    0.186263    0.055169    0.149727    1.916386
H    -1.883441    1.377385   -0.056304   -0.007072   -0.037407   -0.469130
H     2.325711    0.936406   -0.129663    0.002445   -0.007482   -0.152053
12
* Frequency(13)  580.3749
C     1.322274    0.519526   -0.067574    0.006691    0.009058    0.045780
C     1.108855   -0.817811    0.023734   -0.002817    0.001044   -0.079749
N    -0.152830   -1.345620    0.088038   -0.004018   -0.010900   -0.136742
C    -1.304067   -0.576651    0.072124   -0.006584   -0.007718   -0.036552
N    -1.057531    0.780194   -0.024713    0.004212   -0.000201    0.064235
C     0.186367    1.427886   -0.098383    0.006927    0.009478    0.121925
O    -2.425343   -1.053883    0.139876   -0.008257   -0.002963   -0.011376
O     0.240571    2.646913   -0.209244    0.001915   -0.002872   -0.039897
H     1.922294   -1.545345    0.057775   -0.002834    0.000691   -0.086371
H    -0.277132   -2.332481    0.404051    0.055169    0.149727    1.916386
H    -1.884244    1.373134   -0.109619   -0.007072   -0.037407   -0.469130
H     2.325989    0.935556   -0.146943    0.002445   -0.007482   -0.152053
12
* Frequency(13)  580.3749
C     1.322952    0.520444   -0.062935    0.006691    0.009058    0.045780
C     1.108570   -0.817706    0.015653   -0.002817    0.001044   -0.079749
N    -0.153237   -1.346725    0.074182   -0.004018   -0.010900   -0.136742
C    -1.304734   -0.577433    0.068420   -0.006584   -0.007718   -0.036552
N    -1.057105    0.780173   -0.018204    0.004212   -0.000201    0.064235
C     0.187069    1.428846   -0.086029    0.006927    0.009478    0.121925
O    -2.426179   -1.054184    0.138723   -0.008257   -0.002963   -0.011376
O     0.240765    2.646622   -0.213287    0.001915   -0.002872   -0.039897
H     1.922007   -1.545275    0.049023   -0.002834    0.000691   -0.086371
H    -0.271542   -2.317309    0.598237    0.055169    0.149727    1.916386
H    -1.884961    1.369344   -0.157155   -0.007072   -0.037407   -0.469130
H     2.326236    0.934798   -0.162351    0.002445   -0.007482   -0.152053
12
* Frequency(13)  580.3749
C     1.323474    0.521150   -0.059363    0.006691    0.009058    0.045780
C     1.108350   -0.817624    0.009430   -0.002817    0.001044   -0.079749
N    -0.153551   -1.347575    0.063512   -0.004018   -0.010900   -0.136742
C    -1.305248   -0.578035    0.065568   -0.006584   -0.007718   -0.036552
N    -1.056776    0.780157   -0.013191    0.004212   -0.000201    0.064235
C     0.187610    1.429586   -0.076514    0.006927    0.009478    0.121925
O    -2.426824   -1.054415    0.137835   -0.008257   -0.002963   -0.011376
O     0.240915    2.646398   -0.216400    0.001915   -0.002872   -0.039897
H     1.921786   -1.545221    0.042284   -0.002834    0.000691   -0.086371
H    -0.267237   -2.305625    0.747780    0.055169    0.149727    1.916386
H    -1.885513    1.366425   -0.193763   -0.007072   -0.037407   -0.469130
H     2.326427    0.934214   -0.174216    0.002445   -0.007482   -0.152053
12
* Frequency(13)  580.3749
C     1.323784    0.521570   -0.057244    0.006691    0.009058    0.045780
C     1.108219   -0.817576    0.005739   -0.002817    0.001044   -0.079749
N    -0.153737   -1.348080    0.057183   -0.004018   -0.010900   -0.136742
C    -1.305553   -0.578393    0.063876   -0.006584   -0.007718   -0.036552
N    -1.056581    0.780148   -0.010218    0.004212   -0.000201    0.064235
C     0.187930    1.430024   -0.070872    0.006927    0.009478    0.121925
O    -2.427206   -1.054552    0.137309   -0.008257   -0.002963   -0.011376
O     0.241003    2.646265   -0.218247    0.001915   -0.002872   -0.039897
H     1.921655   -1.545190    0.038286   -0.002834    0.000691   -0.086371
H    -0.264683   -2.298696    0.836474    0.055169    0.149727    1.916386
H    -1.885840    1.364693   -0.215476   -0.007072   -0.037407   -0.469130
H     2.326540    0.933868   -0.181253    0.002445   -0.007482   -0.152053
12
* Frequency(13)  580.3749
C     1.323847    0.521656   -0.056808    0.006691    0.009058    0.045780
C     1.108193   -0.817566    0.004980   -0.002817    0.001044   -0.079749
N    -0.153775   -1.348183    0.055882   -0.004018   -0.010900   -0.136742
C    -1.305616   -0.578466    0.063529   -0.006584   -0.007718   -0.036552
N    -1.056541    0.780146   -0.009607    0.004212   -0.000201    0.064235
C     0.187996    1.430115   -0.069711    0.006927    0.009478    0.121925
O    -2.427284   -1.054580    0.137201   -0.008257   -0.002963   -0.011376
O     0.241021    2.646238   -0.218626    0.001915   -0.002872   -0.039897
H     1.921628   -1.545183    0.037464   -0.002834    0.000691   -0.086371
H    -0.264158   -2.297271    0.854707    0.055169    0.149727    1.916386
H    -1.885908    1.364337   -0.219939   -0.007072   -0.037407   -0.469130
H     2.326564    0.933796   -0.182700    0.002445   -0.007482   -0.152053
12
* Frequency(13)  580.3749
C     1.323658    0.521400   -0.058103    0.006691    0.009058    0.045780
C     1.108272   -0.817595    0.007236   -0.002817    0.001044   -0.079749
N    -0.153661   -1.347875    0.059750   -0.004018   -0.010900   -0.136742
C    -1.305429   -0.578248    0.064563   -0.006584   -0.007718   -0.036552
N    -1.056660    0.780152   -0.011424    0.004212   -0.000201    0.064235
C     0.187800    1.429847   -0.073160    0.006927    0.009478    0.121925
O    -2.427051   -1.054496    0.137523   -0.008257   -0.002963   -0.011376
O     0.240967    2.646319   -0.217498    0.001915   -0.002872   -0.039897
H     1.921708   -1.545202    0.039907   -0.002834    0.000691   -0.086371
H    -0.265719   -2.301506    0.800505    0.055169    0.149727    1.916386
H    -1.885708    1.365395   -0.206670   -0.007072   -0.037407   -0.469130
H     2.326494    0.934008   -0.178399    0.002445   -0.007482   -0.152053
12
* Frequency(13)  580.3749
C     1.323237    0.520829   -0.060988    0.006691    0.009058    0.045780
C     1.108450   -0.817661    0.012262   -0.002817    0.001044   -0.079749
N    -0.153408   -1.347188    0.068367   -0.004018   -0.010900   -0.136742
C    -1.305014   -0.577761    0.066866   -0.006584   -0.007718   -0.036552
N    -1.056925    0.780165   -0.015472    0.004212   -0.000201    0.064235
C     0.187364    1.429249   -0.080843    0.006927    0.009478    0.121925
O    -2.426530   -1.054310    0.138239   -0.008257   -0.002963   -0.011376
O     0.240847    2.646500   -0.214984    0.001915   -0.002872   -0.039897
H     1.921886   -1.545246    0.045350   -0.002834    0.000691   -0.086371
H    -0.269195   -2.310941    0.679739    0.055169    0.149727    1.916386
H    -1.885262    1.367753   -0.177107   -0.007072   -0.037407   -0.469130
H     2.326340    0.934479   -0.168817    0.002445   -0.007482   -0.152053
12
* Frequency(13)  580.3749
C     1.322628    0.520005   -0.065151    0.006691    0.009058    0.045780
C     1.108706   -0.817756    0.019513   -0.002817    0.001044   -0.079749
N    -0.153043   -1.346197    0.080800   -0.004018   -0.010900   -0.136742
C    -1.304416   -0.577060    0.070189   -0.006584   -0.007718   -0.036552
N    -1.057308    0.780183   -0.021312    0.004212   -0.000201    0.064235
C     0.186734    1.428387   -0.091929    0.006927    0.009478    0.121925
O    -2.425780   -1.054040    0.139274   -0.008257   -0.002963   -0.011376
O     0.240672    2.646761   -0.211356    0.001915   -0.002872   -0.039897
H     1.922144   -1.545309    0.053203   -0.002834    0.000691   -0.086371
H    -0.274211   -2.324555    0.505498    0.055169    0.149727    1.916386
H    -1.884619    1.371154   -0.134453   -0.007072   -0.037407   -0.469130
H     2.326118    0.935160   -0.154992    0.002445   -0.007482   -0.152053
12
* Frequency(13)  580.3749
C     1.321899    0.519018   -0.070139    0.006691    0.009058    0.045780
C     1.109013   -0.817870    0.028203   -0.002817    0.001044   -0.079749
N    -0.152605   -1.345009    0.095701   -0.004018   -0.010900   -0.136742
C    -1.303698   -0.576219    0.074173   -0.006584   -0.007718   -0.036552
N    -1.057767    0.780205   -0.028312    0.004212   -0.000201    0.064235
C     0.185979    1.427355   -0.105216    0.006927    0.009478    0.121925
O    -2.424880   -1.053717    0.140513   -0.008257   -0.002963   -0.011376
O     0.240464    2.647074   -0.207009    0.001915   -0.002872   -0.039897
H     1.922453   -1.545384    0.062615   -0.002834    0.000691   -0.086371
H    -0.280223   -2.340871    0.296663    0.055169    0.149727    1.916386
H    -1.883848    1.375230   -0.083330   -0.007072   -0.037407   -0.469130
H     2.325852    0.935975   -0.138423    0.002445   -0.007482   -0.152053
12
* Frequency(13)  580.3749
C     1.321128    0.517974   -0.075414    0.006691    0.009058    0.045780
C     1.109338   -0.817990    0.037391   -0.002817    0.001044   -0.079749
N    -0.152142   -1.343753    0.111456   -0.004018   -0.010900   -0.136742
C    -1.302940   -0.575329    0.078384   -0.006584   -0.007718   -0.036552
N    -1.058253    0.780228   -0.035713    0.004212   -0.000201    0.064235
C     0.185181    1.426263   -0.119263    0.006927    0.009478    0.121925
O    -2.423929   -1.053376    0.141824   -0.008257   -0.002963   -0.011376
O     0.240243    2.647405   -0.202412    0.001915   -0.002872   -0.039897
H     1.922779   -1.545464    0.072567   -0.002834    0.000691   -0.086371
H    -0.286580   -2.358122    0.075864    0.055169    0.149727    1.916386
H    -1.883033    1.379540   -0.029279   -0.007072   -0.037407   -0.469130
H     2.325570    0.936837   -0.120904    0.002445   -0.007482   -0.152053
12
* Frequency(13)  580.3749
C     1.320399    0.516987   -0.080403    0.006691    0.009058    0.045780
C     1.109645   -0.818104    0.046082   -0.002817    0.001044   -0.079749
N    -0.151704   -1.342565    0.126357   -0.004018   -0.010900   -0.136742
C    -1.302222   -0.574488    0.082367   -0.006584   -0.007718   -0.036552
N    -1.058712    0.780250   -0.042713    0.004212   -0.000201    0.064235
C     0.184426    1.425230   -0.132550    0.006927    0.009478    0.121925
O    -2.423029   -1.053053    0.143064   -0.008257   -0.002963   -0.011376
O     0.240034    2.647718   -0.198064    0.001915   -0.002872   -0.039897
H     1.923088   -1.545539    0.081979   -0.002834    0.000691   -0.086371
H    -0.292592   -2.374438   -0.132971    0.055169    0.149727    1.916386
H    -1.882263    1.383616    0.021844   -0.007072   -0.037407   -0.469130
H     2.325304    0.937653   -0.104334    0.002445   -0.007482   -0.152053
12
* Frequency(13)  580.3749
C     1.319791    0.516164   -0.084565    0.006691    0.009058    0.045780
C     1.109901   -0.818199    0.053333   -0.002817    0.001044   -0.079749
N    -0.151339   -1.341574    0.138790   -0.004018   -0.010900   -0.136742
C    -1.301624   -0.573787    0.085691   -0.006584   -0.007718   -0.036552
N    -1.059095    0.780268   -0.048553    0.004212   -0.000201    0.064235
C     0.183796    1.424368   -0.143636    0.006927    0.009478    0.121925
O    -2.422278   -1.052784    0.144098   -0.008257   -0.002963   -0.011376
O     0.239860    2.647979   -0.194437    0.001915   -0.002872   -0.039897
H     1.923346   -1.545602    0.089832   -0.002834    0.000691   -0.086371
H    -0.297608   -2.388052   -0.307213    0.055169    0.149727    1.916386
H    -1.881620    1.387018    0.064498   -0.007072   -0.037407   -0.469130
H     2.325081    0.938333   -0.090509    0.002445   -0.007482   -0.152053
12
* Frequency(13)  580.3749
C     1.319369    0.515593   -0.087450    0.006691    0.009058    0.045780
C     1.110078   -0.818265    0.058358   -0.002817    0.001044   -0.079749
N    -0.151086   -1.340887    0.147407   -0.004018   -0.010900   -0.136742
C    -1.301209   -0.573300    0.087994   -0.006584   -0.007718   -0.036552
N    -1.059360    0.780281   -0.052601    0.004212   -0.000201    0.064235
C     0.183360    1.423771   -0.151319    0.006927    0.009478    0.121925
O    -2.421758   -1.052597    0.144815   -0.008257   -0.002963   -0.011376
O     0.239740    2.648160   -0.191922    0.001915   -0.002872   -0.039897
H     1.923525   -1.545645    0.095275   -0.002834    0.000691   -0.086371
H    -0.301084   -2.397487   -0.427978    0.055169    0.149727    1.916386
H    -1.881174    1.389375    0.094061   -0.007072   -0.037407   -0.469130
H     2.324927    0.938804   -0.080927    0.002445   -0.007482   -0.152053
12
* Frequency(13)  580.3749
C     1.319180    0.515337   -0.088745    0.006691    0.009058    0.045780
C     1.110158   -0.818294    0.060614   -0.002817    0.001044   -0.079749
N    -0.150972   -1.340579    0.151275   -0.004018   -0.010900   -0.136742
C    -1.301023   -0.573082    0.089028   -0.006584   -0.007718   -0.036552
N    -1.059479    0.780286   -0.054418    0.004212   -0.000201    0.064235
C     0.183164    1.423502   -0.154768    0.006927    0.009478    0.121925
O    -2.421524   -1.052513    0.145137   -0.008257   -0.002963   -0.011376
O     0.239685    2.648242   -0.190794    0.001915   -0.002872   -0.039897
H     1.923605   -1.545665    0.097718   -0.002834    0.000691   -0.086371
H    -0.302645   -2.401722   -0.482181    0.055169    0.149727    1.916386
H    -1.880974    1.390433    0.107330   -0.007072   -0.037407   -0.469130
H     2.324858    0.939016   -0.076627    0.002445   -0.007482   -0.152053
12
* Frequency(13)  580.3749
C     1.319244    0.515423   -0.088310    0.006691    0.009058    0.045780
C     1.110131   -0.818284    0.059855   -0.002817    0.001044   -0.079749
N    -0.151010   -1.340683    0.149974   -0.004018   -0.010900   -0.136742
C    -1.301085   -0.573155    0.088680   -0.006584   -0.007718   -0.036552
N    -1.059439    0.780285   -0.053807    0.004212   -0.000201    0.064235
C     0.183229    1.423593   -0.153608    0.006927    0.009478    0.121925
O    -2.421603   -1.052541    0.145029   -0.008257   -0.002963   -0.011376
O     0.239704    2.648214   -0.191174    0.001915   -0.002872   -0.039897
H     1.923578   -1.545658    0.096896   -0.002834    0.000691   -0.086371
H    -0.302120   -2.400297   -0.463947    0.055169    0.149727    1.916386
H    -1.881041    1.390077    0.102867   -0.007072   -0.037407   -0.469130
H     2.324881    0.938945   -0.078073    0.002445   -0.007482   -0.152053
12
* Frequency(13)  580.3749
C     1.319553    0.515842   -0.086191    0.006691    0.009058    0.045780
C     1.110001   -0.818236    0.056164   -0.002817    0.001044   -0.079749
N    -0.151196   -1.341187    0.143645   -0.004018   -0.010900   -0.136742
C    -1.301390   -0.573513    0.086988   -0.006584   -0.007718   -0.036552
N    -1.059244    0.780275   -0.050834    0.004212   -0.000201    0.064235
C     0.183550    1.424031   -0.147965    0.006927    0.009478    0.121925
O    -2.421985   -1.052678    0.144502   -0.008257   -0.002963   -0.011376
O     0.239792    2.648081   -0.193020    0.001915   -0.002872   -0.039897
H     1.923447   -1.545626    0.092898   -0.002834    0.000691   -0.086371
H    -0.299566   -2.393368   -0.375254    0.055169    0.149727    1.916386
H    -1.881369    1.388346    0.081154   -0.007072   -0.037407   -0.469130
H     2.324994    0.938598   -0.085111    0.002445   -0.007482   -0.152053
12
* Frequency(13)  580.3749
C     1.320076    0.516549   -0.082618    0.006691    0.009058    0.045780
C     1.109781   -0.818155    0.049941   -0.002817    0.001044   -0.079749
N    -0.151510   -1.342038    0.132974   -0.004018   -0.010900   -0.136742
C    -1.301904   -0.574115    0.084136   -0.006584   -0.007718   -0.036552
N    -1.058916    0.780260   -0.045822    0.004212   -0.000201    0.064235
C     0.184091    1.424771   -0.138450    0.006927    0.009478    0.121925
O    -2.422629   -1.052910    0.143614   -0.008257   -0.002963   -0.011376
O     0.239942    2.647857   -0.196133    0.001915   -0.002872   -0.039897
H     1.923226   -1.545573    0.086159   -0.002834    0.000691   -0.086371
H    -0.295261   -2.381684   -0.225711    0.055169    0.149727    1.916386
H    -1.881920    1.385427    0.044547   -0.007072   -0.037407   -0.469130
H     2.325185    0.938015   -0.096976    0.002445   -0.007482   -0.152053
12
* Frequency(13)  580.3749
C     1.320753    0.517467   -0.077979    0.006691    0.009058    0.045780
C     1.109495   -0.818049    0.041860   -0.002817    0.001044   -0.079749
N    -0.151917   -1.343142    0.119118   -0.004018   -0.010900   -0.136742
C    -1.302571   -0.574897    0.080432   -0.006584   -0.007718   -0.036552
N    -1.058489    0.780239   -0.039313    0.004212   -0.000201    0.064235
C     0.184793    1.425731   -0.126096    0.006927    0.009478    0.121925
O    -2.423466   -1.053210    0.142462   -0.008257   -0.002963   -0.011376
O     0.240136    2.647566   -0.200176    0.001915   -0.002872   -0.039897
H     1.922938   -1.545502    0.077407   -0.002834    0.000691   -0.086371
H    -0.289671   -2.366512   -0.031524    0.055169    0.149727    1.916386
H    -1.882637    1.381636   -0.002990   -0.007072   -0.037407   -0.469130
H     2.325433    0.937256   -0.112383    0.002445   -0.007482   -0.152053
12
* Frequency(13)  580.3749
C     1.321514    0.518496   -0.072777    0.006691    0.009058    0.045780
C     1.109175   -0.817930    0.032797   -0.002817    0.001044   -0.079749
N    -0.152373   -1.344381    0.103578   -0.004018   -0.010900   -0.136742
C    -1.303319   -0.575774    0.076278   -0.006584   -0.007718   -0.036552
N    -1.058010    0.780216   -0.032013    0.004212   -0.000201    0.064235
C     0.185580    1.426809   -0.112240    0.006927    0.009478    0.121925
O    -2.424404   -1.053547    0.141169   -0.008257   -0.002963   -0.011376
O     0.240353    2.647240   -0.204710    0.001915   -0.002872   -0.039897
H     1.922616   -1.545424    0.067591   -0.002834    0.000691   -0.086371
H    -0.283402   -2.349496    0.186263    0.055169    0.149727    1.916386
H    -1.883441    1.377385   -0.056304   -0.007072   -0.037407   -0.469130
H     2.325711    0.936406   -0.129663    0.002445   -0.007482   -0.152053
