12
* (null), Energy   -1000.0000000
C     1.625816    0.316601   -0.065250   -0.000929    0.008355    0.115320
C     1.413215   -1.019528    0.041288   -0.001936   -0.006675   -0.080502
N     0.151412   -1.546563    0.113379    0.002886    0.003642    0.070107
C    -1.001718   -0.778391    0.084609   -0.001220   -0.007050   -0.097206
N    -0.754728    0.578612   -0.023325   -0.003618   -0.008418   -0.120679
C     0.489437    1.226278   -0.105125   -0.002656   -0.002779   -0.033154
O    -2.121379   -1.255957    0.147970    0.001367    0.000684   -0.006771
O     0.544888    2.445398   -0.199422    0.000513   -0.001793   -0.020264
H     2.227146   -1.747036    0.075476   -0.002807   -0.013467   -0.204963
H     0.020614   -2.552189    0.190181    0.014822    0.036610    0.521880
H    -1.580237    1.175741   -0.048115    0.052014    0.152279    1.898520
H     2.630238    0.734097   -0.122298   -0.003369    0.005665    0.054852
12
* Frequency(14)  677.9923
C     1.625710    0.317551   -0.052145   -0.000929    0.008355    0.115320
C     1.412995   -1.020287    0.032139   -0.001936   -0.006675   -0.080502
N     0.151740   -1.546149    0.121346    0.002886    0.003642    0.070107
C    -1.001856   -0.779192    0.073562   -0.001220   -0.007050   -0.097206
N    -0.755139    0.577656   -0.037039   -0.003618   -0.008418   -0.120679
C     0.489135    1.225962   -0.108893   -0.002656   -0.002779   -0.033154
O    -2.121224   -1.255879    0.147201    0.001367    0.000684   -0.006771
O     0.544946    2.445194   -0.201725    0.000513   -0.001793   -0.020264
H     2.226827   -1.748567    0.052183   -0.002807   -0.013467   -0.204963
H     0.022299   -2.548029    0.249490    0.014822    0.036610    0.521880
H    -1.574326    1.193047    0.167642    0.052014    0.152279    1.898520
H     2.629855    0.734741   -0.116064   -0.003369    0.005665    0.054852
12
* Frequency(14)  677.9923
C     1.625616    0.318398   -0.040459   -0.000929    0.008355    0.115320
C     1.412799   -1.020963    0.023982   -0.001936   -0.006675   -0.080502
N     0.152032   -1.545780    0.128450    0.002886    0.003642    0.070107
C    -1.001980   -0.779906    0.063712   -0.001220   -0.007050   -0.097206
N    -0.755506    0.576803   -0.049267   -0.003618   -0.008418   -0.120679
C     0.488866    1.225681   -0.112252   -0.002656   -0.002779   -0.033154
O    -2.121085   -1.255810    0.146515    0.001367    0.000684   -0.006771
O     0.544998    2.445012   -0.203778    0.000513   -0.001793   -0.020264
H     2.226543   -1.749931    0.031414   -0.002807   -0.013467   -0.204963
H     0.023801   -2.544319    0.302372    0.014822    0.036610    0.521880
H    -1.569056    1.208477    0.360018    0.052014    0.152279    1.898520
H     2.629513    0.735315   -0.110506   -0.003369    0.005665    0.054852
12
* Frequency(14)  677.9923
C     1.625543    0.319049   -0.031460   -0.000929    0.008355    0.115320
C     1.412648   -1.021484    0.017700   -0.001936   -0.006675   -0.080502
N     0.152258   -1.545496    0.133921    0.002886    0.003642    0.070107
C    -1.002075   -0.780456    0.056127   -0.001220   -0.007050   -0.097206
N    -0.755788    0.576146   -0.058684   -0.003618   -0.008418   -0.120679
C     0.488659    1.225464   -0.114839   -0.002656   -0.002779   -0.033154
O    -2.120979   -1.255756    0.145986    0.001367    0.000684   -0.006771
O     0.545038    2.444873   -0.205359    0.000513   -0.001793   -0.020264
H     2.226324   -1.750982    0.015420   -0.002807   -0.013467   -0.204963
H     0.024957   -2.541462    0.343096    0.014822    0.036610    0.521880
H    -1.564997    1.220360    0.508167    0.052014    0.152279    1.898520
H     2.629250    0.735757   -0.106226   -0.003369    0.005665    0.054852
12
* Frequency(14)  677.9923
C     1.625500    0.319436   -0.026123   -0.000929    0.008355    0.115320
C     1.412558   -1.021793    0.013975   -0.001936   -0.006675   -0.080502
N     0.152391   -1.545328    0.137166    0.002886    0.003642    0.070107
C    -1.002132   -0.780783    0.051628   -0.001220   -0.007050   -0.097206
N    -0.755956    0.575756   -0.064270   -0.003618   -0.008418   -0.120679
C     0.488536    1.225335   -0.116374   -0.002656   -0.002779   -0.033154
O    -2.120916   -1.255725    0.145673    0.001367    0.000684   -0.006771
O     0.545062    2.444790   -0.206297    0.000513   -0.001793   -0.020264
H     2.226194   -1.751605    0.005933   -0.002807   -0.013467   -0.204963
H     0.025643   -2.539768    0.367250    0.014822    0.036610    0.521880
H    -1.562590    1.227408    0.596033    0.052014    0.152279    1.898520
H     2.629094    0.736019   -0.103687   -0.003369    0.005665    0.054852
12
* Frequency(14)  677.9923
C     1.625492    0.319516   -0.025026   -0.000929    0.008355    0.115320
C     1.412540   -1.021857    0.013209   -0.001936   -0.006675   -0.080502
N     0.152419   -1.545293    0.137833    0.002886    0.003642    0.070107
C    -1.002143   -0.780850    0.050703   -0.001220   -0.007050   -0.097206
N    -0.755990    0.575676   -0.065418   -0.003618   -0.008418   -0.120679
C     0.488511    1.225309   -0.116689   -0.002656   -0.002779   -0.033154
O    -2.120903   -1.255718    0.145608    0.001367    0.000684   -0.006771
O     0.545067    2.444773   -0.206490    0.000513   -0.001793   -0.020264
H     2.226167   -1.751734    0.003983   -0.002807   -0.013467   -0.204963
H     0.025784   -2.539419    0.372215    0.014822    0.036610    0.521880
H    -1.562095    1.228857    0.614097    0.052014    0.152279    1.898520
H     2.629062    0.736073   -0.103165   -0.003369    0.005665    0.054852
12
* Frequency(14)  677.9923
C     1.625518    0.319279   -0.028288   -0.000929    0.008355    0.115320
C     1.412595   -1.021668    0.015486   -0.001936   -0.006675   -0.080502
N     0.152337   -1.545396    0.135850    0.002886    0.003642    0.070107
C    -1.002109   -0.780650    0.053453   -0.001220   -0.007050   -0.097206
N    -0.755888    0.575914   -0.062005   -0.003618   -0.008418   -0.120679
C     0.488586    1.225387   -0.115751   -0.002656   -0.002779   -0.033154
O    -2.120941   -1.255738    0.145800    0.001367    0.000684   -0.006771
O     0.545052    2.444823   -0.205917    0.000513   -0.001793   -0.020264
H     2.226247   -1.751353    0.009781   -0.002807   -0.013467   -0.204963
H     0.025365   -2.540455    0.357454    0.014822    0.036610    0.521880
H    -1.563566    1.224550    0.560399    0.052014    0.152279    1.898520
H     2.629158    0.735913   -0.104716   -0.003369    0.005665    0.054852
12
* Frequency(14)  677.9923
C     1.625576    0.318753   -0.035555   -0.000929    0.008355    0.115320
C     1.412717   -1.021247    0.020559   -0.001936   -0.006675   -0.080502
N     0.152155   -1.545625    0.131432    0.002886    0.003642    0.070107
C    -1.002032   -0.780206    0.059578   -0.001220   -0.007050   -0.097206
N    -0.755660    0.576445   -0.054400   -0.003618   -0.008418   -0.120679
C     0.488753    1.225563   -0.113662   -0.002656   -0.002779   -0.033154
O    -2.121027   -1.255781    0.146227    0.001367    0.000684   -0.006771
O     0.545020    2.444936   -0.204640    0.000513   -0.001793   -0.020264
H     2.226424   -1.750504    0.022697   -0.002807   -0.013467   -0.204963
H     0.024431   -2.542762    0.324567    0.014822    0.036610    0.521880
H    -1.566844    1.214954    0.440760    0.052014    0.152279    1.898520
H     2.629370    0.735556   -0.108173   -0.003369    0.005665    0.054852
12
* Frequency(14)  677.9923
C     1.625661    0.317993   -0.046040   -0.000929    0.008355    0.115320
C     1.412893   -1.020640    0.027878   -0.001936   -0.006675   -0.080502
N     0.151893   -1.545957    0.125058    0.002886    0.003642    0.070107
C    -1.001921   -0.779565    0.068417   -0.001220   -0.007050   -0.097206
N    -0.755331    0.577210   -0.043427   -0.003618   -0.008418   -0.120679
C     0.488995    1.225815   -0.110648   -0.002656   -0.002779   -0.033154
O    -2.121152   -1.255843    0.146842    0.001367    0.000684   -0.006771
O     0.544973    2.445099   -0.202798    0.000513   -0.001793   -0.020264
H     2.226679   -1.749280    0.041332   -0.002807   -0.013467   -0.204963
H     0.023083   -2.546091    0.277117    0.014822    0.036610    0.521880
H    -1.571573    1.201108    0.268143    0.052014    0.152279    1.898520
H     2.629676    0.735041   -0.113160   -0.003369    0.005665    0.054852
12
* Frequency(14)  677.9923
C     1.625762    0.317083   -0.058607   -0.000929    0.008355    0.115320
C     1.413104   -1.019913    0.036650   -0.001936   -0.006675   -0.080502
N     0.151578   -1.546354    0.117418    0.002886    0.003642    0.070107
C    -1.001788   -0.778797    0.079009   -0.001220   -0.007050   -0.097206
N    -0.754937    0.578127   -0.030277   -0.003618   -0.008418   -0.120679
C     0.489284    1.226118   -0.107035   -0.002656   -0.002779   -0.033154
O    -2.121301   -1.255917    0.147580    0.001367    0.000684   -0.006771
O     0.544917    2.445295   -0.200589    0.000513   -0.001793   -0.020264
H     2.226985   -1.747812    0.063668   -0.002807   -0.013467   -0.204963
H     0.021468   -2.550080    0.220245    0.014822    0.036610    0.521880
H    -1.577241    1.184514    0.061255    0.052014    0.152279    1.898520
H     2.630044    0.734423   -0.119138   -0.003369    0.005665    0.054852
12
* Frequency(14)  677.9923
C     1.625869    0.316120   -0.071893   -0.000929    0.008355    0.115320
C     1.413327   -1.019144    0.045926   -0.001936   -0.006675   -0.080502
N     0.151246   -1.546773    0.109340    0.002886    0.003642    0.070107
C    -1.001647   -0.777985    0.090209   -0.001220   -0.007050   -0.097206
N    -0.754520    0.579097   -0.016372   -0.003618   -0.008418   -0.120679
C     0.489590    1.226438   -0.103215   -0.002656   -0.002779   -0.033154
O    -2.121458   -1.255996    0.148360    0.001367    0.000684   -0.006771
O     0.544858    2.445501   -0.198255    0.000513   -0.001793   -0.020264
H     2.227308   -1.746260    0.087283   -0.002807   -0.013467   -0.204963
H     0.019760   -2.554298    0.160116    0.014822    0.036610    0.521880
H    -1.583234    1.166969   -0.157486    0.052014    0.152279    1.898520
H     2.630432    0.733771   -0.125458   -0.003369    0.005665    0.054852
12
* Frequency(14)  677.9923
C     1.625970    0.315210   -0.084460   -0.000929    0.008355    0.115320
C     1.413538   -1.018416    0.054698   -0.001936   -0.006675   -0.080502
N     0.150931   -1.547170    0.101700    0.002886    0.003642    0.070107
C    -1.001514   -0.777216    0.100802   -0.001220   -0.007050   -0.097206
N    -0.754126    0.580014   -0.003222   -0.003618   -0.008418   -0.120679
C     0.489880    1.226741   -0.099602   -0.002656   -0.002779   -0.033154
O    -2.121607   -1.256071    0.149098    0.001367    0.000684   -0.006771
O     0.544802    2.445697   -0.196046    0.000513   -0.001793   -0.020264
H     2.227614   -1.744793    0.109619   -0.002807   -0.013467   -0.204963
H     0.018145   -2.558288    0.103245    0.014822    0.036610    0.521880
H    -1.588902    1.150375   -0.364374    0.052014    0.152279    1.898520
H     2.630799    0.733153   -0.131435   -0.003369    0.005665    0.054852
12
* Frequency(14)  677.9923
C     1.626055    0.314450   -0.094945   -0.000929    0.008355    0.115320
C     1.413714   -1.017809    0.062017   -0.001936   -0.006675   -0.080502
N     0.150669   -1.547501    0.095326    0.002886    0.003642    0.070107
C    -1.001403   -0.776575    0.109640   -0.001220   -0.007050   -0.097206
N    -0.753797    0.580780    0.007751   -0.003618   -0.008418   -0.120679
C     0.490121    1.226994   -0.096588   -0.002656   -0.002779   -0.033154
O    -2.121731   -1.256133    0.149714    0.001367    0.000684   -0.006771
O     0.544756    2.445860   -0.194204    0.000513   -0.001793   -0.020264
H     2.227869   -1.743569    0.128254   -0.002807   -0.013467   -0.204963
H     0.016798   -2.561616    0.055795    0.014822    0.036610    0.521880
H    -1.593631    1.136529   -0.536991    0.052014    0.152279    1.898520
H     2.631105    0.732638   -0.136422   -0.003369    0.005665    0.054852
12
* Frequency(14)  677.9923
C     1.626113    0.313924   -0.102213   -0.000929    0.008355    0.115320
C     1.413836   -1.017389    0.067090   -0.001936   -0.006675   -0.080502
N     0.150487   -1.547731    0.090908    0.002886    0.003642    0.070107
C    -1.001327   -0.776131    0.115766   -0.001220   -0.007050   -0.097206
N    -0.753569    0.581310    0.015356   -0.003618   -0.008418   -0.120679
C     0.490289    1.227169   -0.094498   -0.002656   -0.002779   -0.033154
O    -2.121818   -1.256176    0.150141    0.001367    0.000684   -0.006771
O     0.544724    2.445973   -0.192927    0.000513   -0.001793   -0.020264
H     2.228046   -1.742720    0.141171   -0.002807   -0.013467   -0.204963
H     0.015864   -2.563923    0.022907    0.014822    0.036610    0.521880
H    -1.596909    1.126933   -0.656630    0.052014    0.152279    1.898520
H     2.631318    0.732281   -0.139879   -0.003369    0.005665    0.054852
12
* Frequency(14)  677.9923
C     1.626139    0.313687   -0.105474   -0.000929    0.008355    0.115320
C     1.413890   -1.017200    0.069367   -0.001936   -0.006675   -0.080502
N     0.150406   -1.547834    0.088925    0.002886    0.003642    0.070107
C    -1.001292   -0.775932    0.118515   -0.001220   -0.007050   -0.097206
N    -0.753467    0.581548    0.018769   -0.003618   -0.008418   -0.120679
C     0.490364    1.227248   -0.093561   -0.002656   -0.002779   -0.033154
O    -2.121856   -1.256195    0.150332    0.001367    0.000684   -0.006771
O     0.544709    2.446023   -0.192354    0.000513   -0.001793   -0.020264
H     2.228125   -1.742339    0.146968   -0.002807   -0.013467   -0.204963
H     0.015444   -2.564959    0.008147    0.014822    0.036610    0.521880
H    -1.598380    1.122626   -0.710328    0.052014    0.152279    1.898520
H     2.631413    0.732121   -0.141430   -0.003369    0.005665    0.054852
12
* Frequency(14)  677.9923
C     1.626131    0.313767   -0.104377   -0.000929    0.008355    0.115320
C     1.413872   -1.017264    0.068601   -0.001936   -0.006675   -0.080502
N     0.150433   -1.547799    0.089592    0.002886    0.003642    0.070107
C    -1.001304   -0.775999    0.117590   -0.001220   -0.007050   -0.097206
N    -0.753501    0.581468    0.017621   -0.003618   -0.008418   -0.120679
C     0.490338    1.227221   -0.093876   -0.002656   -0.002779   -0.033154
O    -2.121843   -1.256189    0.150268    0.001367    0.000684   -0.006771
O     0.544714    2.446006   -0.192547    0.000513   -0.001793   -0.020264
H     2.228099   -1.742467    0.145018   -0.002807   -0.013467   -0.204963
H     0.015585   -2.564610    0.013112    0.014822    0.036610    0.521880
H    -1.597885    1.124075   -0.692264    0.052014    0.152279    1.898520
H     2.631381    0.732175   -0.140908   -0.003369    0.005665    0.054852
12
* Frequency(14)  677.9923
C     1.626088    0.314154   -0.099040   -0.000929    0.008355    0.115320
C     1.413782   -1.017572    0.064876   -0.001936   -0.006675   -0.080502
N     0.150567   -1.547630    0.092837    0.002886    0.003642    0.070107
C    -1.001360   -0.776325    0.113092   -0.001220   -0.007050   -0.097206
N    -0.753668    0.581079    0.012035   -0.003618   -0.008418   -0.120679
C     0.490216    1.227093   -0.095410   -0.002656   -0.002779   -0.033154
O    -2.121780   -1.256157    0.149954    0.001367    0.000684   -0.006771
O     0.544738    2.445923   -0.193485    0.000513   -0.001793   -0.020264
H     2.227969   -1.743090    0.135532   -0.002807   -0.013467   -0.204963
H     0.016271   -2.562916    0.037266    0.014822    0.036610    0.521880
H    -1.595478    1.131122   -0.604397    0.052014    0.152279    1.898520
H     2.631225    0.732437   -0.138370   -0.003369    0.005665    0.054852
12
* Frequency(14)  677.9923
C     1.626015    0.314805   -0.090041   -0.000929    0.008355    0.115320
C     1.413631   -1.018093    0.058594   -0.001936   -0.006675   -0.080502
N     0.150792   -1.547346    0.098308    0.002886    0.003642    0.070107
C    -1.001455   -0.776875    0.105506   -0.001220   -0.007050   -0.097206
N    -0.753951    0.580422    0.002618   -0.003618   -0.008418   -0.120679
C     0.490008    1.226876   -0.097998   -0.002656   -0.002779   -0.033154
O    -2.121673   -1.256104    0.149426    0.001367    0.000684   -0.006771
O     0.544778    2.445783   -0.195066    0.000513   -0.001793   -0.020264
H     2.227750   -1.744141    0.119537   -0.002807   -0.013467   -0.204963
H     0.017428   -2.560059    0.077990    0.014822    0.036610    0.521880
H    -1.591419    1.143005   -0.456249    0.052014    0.152279    1.898520
H     2.630962    0.732879   -0.134089   -0.003369    0.005665    0.054852
12
* Frequency(14)  677.9923
C     1.625921    0.315652   -0.078356   -0.000929    0.008355    0.115320
C     1.413435   -1.018770    0.050437   -0.001936   -0.006675   -0.080502
N     0.151084   -1.546977    0.105412    0.002886    0.003642    0.070107
C    -1.001579   -0.777590    0.095656   -0.001220   -0.007050   -0.097206
N    -0.754317    0.579569   -0.009610   -0.003618   -0.008418   -0.120679
C     0.489739    1.226594   -0.101357   -0.002656   -0.002779   -0.033154
O    -2.121535   -1.256034    0.148740    0.001367    0.000684   -0.006771
O     0.544830    2.445602   -0.197119    0.000513   -0.001793   -0.020264
H     2.227465   -1.745506    0.098769   -0.002807   -0.013467   -0.204963
H     0.018930   -2.556350    0.130872    0.014822    0.036610    0.521880
H    -1.586149    1.158436   -0.263872    0.052014    0.152279    1.898520
H     2.630621    0.733453   -0.128531   -0.003369    0.005665    0.054852
12
* Frequency(14)  677.9923
C     1.625816    0.316601   -0.065250   -0.000929    0.008355    0.115320
C     1.413215   -1.019528    0.041288   -0.001936   -0.006675   -0.080502
N     0.151412   -1.546563    0.113379    0.002886    0.003642    0.070107
C    -1.001718   -0.778391    0.084609   -0.001220   -0.007050   -0.097206
N    -0.754728    0.578612   -0.023325   -0.003618   -0.008418   -0.120679
C     0.489437    1.226278   -0.105125   -0.002656   -0.002779   -0.033154
O    -2.121379   -1.255957    0.147970    0.001367    0.000684   -0.006771
O     0.544888    2.445398   -0.199422    0.000513   -0.001793   -0.020264
H     2.227146   -1.747036    0.075476   -0.002807   -0.013467   -0.204963
H     0.020614   -2.552189    0.190181    0.014822    0.036610    0.521880
H    -1.580237    1.175741   -0.048115    0.052014    0.152279    1.898520
H     2.630238    0.734097   -0.122298   -0.003369    0.005665    0.054852
