12
* (null), Energy   -1000.0000000
C     1.625816    0.316601   -0.065250    0.044193    0.008794   -0.001787
C     1.413215   -1.019528    0.041288   -0.125503    0.115835   -0.005527
N     0.151412   -1.546563    0.113379    0.002741   -0.000838   -0.000011
C    -1.001718   -0.778391    0.084609    0.002803   -0.000991    0.000006
N    -0.754728    0.578612   -0.023325   -0.000112    0.000237   -0.000017
C     0.489437    1.226278   -0.105125   -0.001013   -0.000125    0.000038
O    -2.121379   -1.255957    0.147970   -0.000625   -0.000085    0.000022
O     0.544888    2.445398   -0.199422    0.000127    0.000150   -0.000020
H     2.227146   -1.747036    0.075476    1.430342   -1.273452    0.059537
H     0.020614   -2.552189    0.190181   -0.007884    0.013520   -0.000829
H    -1.580237    1.175741   -0.048115    0.001422   -0.000515    0.000006
H     2.630238    0.734097   -0.122298   -0.504968   -0.203976    0.028270
12
* Frequency(32) 3219.8378
C     1.630838    0.317601   -0.065453    0.044193    0.008794   -0.001787
C     1.398952   -1.006364    0.040660   -0.125503    0.115835   -0.005527
N     0.151724   -1.546659    0.113378    0.002741   -0.000838   -0.000011
C    -1.001399   -0.778503    0.084610    0.002803   -0.000991    0.000006
N    -0.754741    0.578639   -0.023326   -0.000112    0.000237   -0.000017
C     0.489322    1.226264   -0.105121   -0.001013   -0.000125    0.000038
O    -2.121450   -1.255966    0.147973   -0.000625   -0.000085    0.000022
O     0.544902    2.445415   -0.199424    0.000127    0.000150   -0.000020
H     2.389697   -1.891758    0.082242    1.430342   -1.273452    0.059537
H     0.019718   -2.550653    0.190087   -0.007884    0.013520   -0.000829
H    -1.580076    1.175683   -0.048115    0.001422   -0.000515    0.000006
H     2.572851    0.710916   -0.119085   -0.504968   -0.203976    0.028270
12
* Frequency(32) 3219.8378
C     1.635316    0.318492   -0.065634    0.044193    0.008794   -0.001787
C     1.386235   -0.994627    0.040100   -0.125503    0.115835   -0.005527
N     0.152001   -1.546744    0.113377    0.002741   -0.000838   -0.000011
C    -1.001115   -0.778604    0.084611    0.002803   -0.000991    0.000006
N    -0.754752    0.578663   -0.023328   -0.000112    0.000237   -0.000017
C     0.489219    1.226251   -0.105117   -0.001013   -0.000125    0.000038
O    -2.121514   -1.255975    0.147975   -0.000625   -0.000085    0.000022
O     0.544915    2.445430   -0.199426    0.000127    0.000150   -0.000020
H     2.534633   -2.020796    0.088274    1.430342   -1.273452    0.059537
H     0.018919   -2.549283    0.190003   -0.007884    0.013520   -0.000829
H    -1.579932    1.175631   -0.048114    0.001422   -0.000515    0.000006
H     2.521682    0.690247   -0.116220   -0.504968   -0.203976    0.028270
12
* Frequency(32) 3219.8378
C     1.638764    0.319178   -0.065774    0.044193    0.008794   -0.001787
C     1.376442   -0.985588    0.039669   -0.125503    0.115835   -0.005527
N     0.152215   -1.546809    0.113376    0.002741   -0.000838   -0.000011
C    -1.000896   -0.778681    0.084611    0.002803   -0.000991    0.000006
N    -0.754761    0.578682   -0.023329   -0.000112    0.000237   -0.000017
C     0.489140    1.226242   -0.105114   -0.001013   -0.000125    0.000038
O    -2.121563   -1.255982    0.147977   -0.000625   -0.000085    0.000022
O     0.544925    2.445442   -0.199428    0.000127    0.000150   -0.000020
H     2.646248   -2.120168    0.092920    1.430342   -1.273452    0.059537
H     0.018304   -2.548228    0.189938   -0.007884    0.013520   -0.000829
H    -1.579821    1.175591   -0.048114    0.001422   -0.000515    0.000006
H     2.482278    0.674330   -0.114014   -0.504968   -0.203976    0.028270
12
* Frequency(32) 3219.8378
C     1.640810    0.319585   -0.065856    0.044193    0.008794   -0.001787
C     1.370633   -0.980227    0.039413   -0.125503    0.115835   -0.005527
N     0.152342   -1.546848    0.113375    0.002741   -0.000838   -0.000011
C    -1.000767   -0.778727    0.084611    0.002803   -0.000991    0.000006
N    -0.754766    0.578692   -0.023330   -0.000112    0.000237   -0.000017
C     0.489093    1.226236   -0.105112   -0.001013   -0.000125    0.000038
O    -2.121592   -1.255986    0.147978   -0.000625   -0.000085    0.000022
O     0.544931    2.445449   -0.199429    0.000127    0.000150   -0.000020
H     2.712447   -2.179106    0.095676    1.430342   -1.273452    0.059537
H     0.017939   -2.547602    0.189900   -0.007884    0.013520   -0.000829
H    -1.579755    1.175567   -0.048114    0.001422   -0.000515    0.000006
H     2.458907    0.664890   -0.112706   -0.504968   -0.203976    0.028270
12
* Frequency(32) 3219.8378
C     1.641230    0.319669   -0.065873    0.044193    0.008794   -0.001787
C     1.369439   -0.979125    0.039360   -0.125503    0.115835   -0.005527
N     0.152368   -1.546856    0.113375    0.002741   -0.000838   -0.000011
C    -1.000740   -0.778736    0.084611    0.002803   -0.000991    0.000006
N    -0.754767    0.578695   -0.023330   -0.000112    0.000237   -0.000017
C     0.489084    1.226235   -0.105112   -0.001013   -0.000125    0.000038
O    -2.121598   -1.255986    0.147978   -0.000625   -0.000085    0.000022
O     0.544932    2.445450   -0.199429    0.000127    0.000150   -0.000020
H     2.726056   -2.191222    0.096242    1.430342   -1.273452    0.059537
H     0.017864   -2.547473    0.189892   -0.007884    0.013520   -0.000829
H    -1.579741    1.175562   -0.048113    0.001422   -0.000515    0.000006
H     2.454103    0.662949   -0.112437   -0.504968   -0.203976    0.028270
12
* Frequency(32) 3219.8378
C     1.639980    0.319420   -0.065823    0.044193    0.008794   -0.001787
C     1.372989   -0.982401    0.039516   -0.125503    0.115835   -0.005527
N     0.152291   -1.546832    0.113375    0.002741   -0.000838   -0.000011
C    -1.000819   -0.778708    0.084611    0.002803   -0.000991    0.000006
N    -0.754764    0.578688   -0.023330   -0.000112    0.000237   -0.000017
C     0.489112    1.226238   -0.105113   -0.001013   -0.000125    0.000038
O    -2.121580   -1.255984    0.147977   -0.000625   -0.000085    0.000022
O     0.544929    2.445446   -0.199428    0.000127    0.000150   -0.000020
H     2.685600   -2.155204    0.094558    1.430342   -1.273452    0.059537
H     0.018087   -2.547856    0.189915   -0.007884    0.013520   -0.000829
H    -1.579782    1.175576   -0.048114    0.001422   -0.000515    0.000006
H     2.468385    0.668719   -0.113236   -0.504968   -0.203976    0.028270
12
* Frequency(32) 3219.8378
C     1.637195    0.318866   -0.065710    0.044193    0.008794   -0.001787
C     1.380898   -0.989700    0.039865   -0.125503    0.115835   -0.005527
N     0.152118   -1.546779    0.113376    0.002741   -0.000838   -0.000011
C    -1.000996   -0.778646    0.084611    0.002803   -0.000991    0.000006
N    -0.754757    0.578673   -0.023329   -0.000112    0.000237   -0.000017
C     0.489176    1.226246   -0.105115   -0.001013   -0.000125    0.000038
O    -2.121540   -1.255979    0.147976   -0.000625   -0.000085    0.000022
O     0.544921    2.445437   -0.199427    0.000127    0.000150   -0.000020
H     2.595464   -2.074955    0.090807    1.430342   -1.273452    0.059537
H     0.018584   -2.548708    0.189967   -0.007884    0.013520   -0.000829
H    -1.579871    1.175609   -0.048114    0.001422   -0.000515    0.000006
H     2.500207    0.681573   -0.115018   -0.504968   -0.203976    0.028270
12
* Frequency(32) 3219.8378
C     1.633177    0.318066   -0.065548    0.044193    0.008794   -0.001787
C     1.392309   -1.000232    0.040367   -0.125503    0.115835   -0.005527
N     0.151869   -1.546703    0.113377    0.002741   -0.000838   -0.000011
C    -1.001251   -0.778556    0.084610    0.002803   -0.000991    0.000006
N    -0.754747    0.578652   -0.023327   -0.000112    0.000237   -0.000017
C     0.489268    1.226258   -0.105119   -0.001013   -0.000125    0.000038
O    -2.121484   -1.255971    0.147974   -0.000625   -0.000085    0.000022
O     0.544909    2.445423   -0.199425    0.000127    0.000150   -0.000020
H     2.465415   -1.959170    0.085393    1.430342   -1.273452    0.059537
H     0.019301   -2.549937    0.190043   -0.007884    0.013520   -0.000829
H    -1.580001    1.175656   -0.048114    0.001422   -0.000515    0.000006
H     2.546119    0.700118   -0.117588   -0.504968   -0.203976    0.028270
12
* Frequency(32) 3219.8378
C     1.628361    0.317108   -0.065353    0.044193    0.008794   -0.001787
C     1.405985   -1.012855    0.040970   -0.125503    0.115835   -0.005527
N     0.151570   -1.546612    0.113378    0.002741   -0.000838   -0.000011
C    -1.001556   -0.778448    0.084610    0.002803   -0.000991    0.000006
N    -0.754735    0.578626   -0.023326   -0.000112    0.000237   -0.000017
C     0.489379    1.226271   -0.105123   -0.001013   -0.000125    0.000038
O    -2.121415   -1.255962    0.147972   -0.000625   -0.000085    0.000022
O     0.544895    2.445407   -0.199423    0.000127    0.000150   -0.000020
H     2.309546   -1.820397    0.078905    1.430342   -1.273452    0.059537
H     0.020160   -2.551410    0.190133   -0.007884    0.013520   -0.000829
H    -1.580156    1.175712   -0.048115    0.001422   -0.000515    0.000006
H     2.601147    0.722346   -0.120669   -0.504968   -0.203976    0.028270
12
* Frequency(32) 3219.8378
C     1.623270    0.316095   -0.065147    0.044193    0.008794   -0.001787
C     1.420445   -1.026201    0.041606   -0.125503    0.115835   -0.005527
N     0.151254   -1.546515    0.113380    0.002741   -0.000838   -0.000011
C    -1.001879   -0.778334    0.084609    0.002803   -0.000991    0.000006
N    -0.754722    0.578599   -0.023324   -0.000112    0.000237   -0.000017
C     0.489496    1.226286   -0.105127   -0.001013   -0.000125    0.000038
O    -2.121343   -1.255952    0.147969   -0.000625   -0.000085    0.000022
O     0.544881    2.445389   -0.199421    0.000127    0.000150   -0.000020
H     2.144747   -1.673675    0.072046    1.430342   -1.273452    0.059537
H     0.021069   -2.552968    0.190229   -0.007884    0.013520   -0.000829
H    -1.580319    1.175771   -0.048116    0.001422   -0.000515    0.000006
H     2.659328    0.745848   -0.123926   -0.504968   -0.203976    0.028270
12
* Frequency(32) 3219.8378
C     1.618454    0.315137   -0.064952    0.044193    0.008794   -0.001787
C     1.434121   -1.038824    0.042209   -0.125503    0.115835   -0.005527
N     0.150955   -1.546424    0.113381    0.002741   -0.000838   -0.000011
C    -1.002185   -0.778226    0.084608    0.002803   -0.000991    0.000006
N    -0.754710    0.578573   -0.023322   -0.000112    0.000237   -0.000017
C     0.489606    1.226299   -0.105131   -0.001013   -0.000125    0.000038
O    -2.121275   -1.255943    0.147967   -0.000625   -0.000085    0.000022
O     0.544867    2.445373   -0.199419    0.000127    0.000150   -0.000020
H     1.988878   -1.534903    0.065558    1.430342   -1.273452    0.059537
H     0.021928   -2.554441    0.190319   -0.007884    0.013520   -0.000829
H    -1.580474    1.175827   -0.048116    0.001422   -0.000515    0.000006
H     2.714356    0.768076   -0.127007   -0.504968   -0.203976    0.028270
12
* Frequency(32) 3219.8378
C     1.614436    0.314337   -0.064790    0.044193    0.008794   -0.001787
C     1.445532   -1.049356    0.042711   -0.125503    0.115835   -0.005527
N     0.150706   -1.546347    0.113382    0.002741   -0.000838   -0.000011
C    -1.002439   -0.778135    0.084608    0.002803   -0.000991    0.000006
N    -0.754700    0.578551   -0.023320   -0.000112    0.000237   -0.000017
C     0.489698    1.226311   -0.105135   -0.001013   -0.000125    0.000038
O    -2.121218   -1.255935    0.147964   -0.000625   -0.000085    0.000022
O     0.544855    2.445359   -0.199417    0.000127    0.000150   -0.000020
H     1.858828   -1.419118    0.060145    1.430342   -1.273452    0.059537
H     0.022645   -2.555670    0.190394   -0.007884    0.013520   -0.000829
H    -1.580604    1.175874   -0.048117    0.001422   -0.000515    0.000006
H     2.760269    0.786622   -0.129577   -0.504968   -0.203976    0.028270
12
* Frequency(32) 3219.8378
C     1.611651    0.313783   -0.064677    0.044193    0.008794   -0.001787
C     1.453441   -1.056656    0.043060   -0.125503    0.115835   -0.005527
N     0.150534   -1.546295    0.113383    0.002741   -0.000838   -0.000011
C    -1.002616   -0.778073    0.084608    0.002803   -0.000991    0.000006
N    -0.754692    0.578536   -0.023319   -0.000112    0.000237   -0.000017
C     0.489762    1.226318   -0.105137   -0.001013   -0.000125    0.000038
O    -2.121179   -1.255929    0.147963   -0.000625   -0.000085    0.000022
O     0.544847    2.445350   -0.199416    0.000127    0.000150   -0.000020
H     1.768692   -1.338869    0.056393    1.430342   -1.273452    0.059537
H     0.023141   -2.556522    0.190447   -0.007884    0.013520   -0.000829
H    -1.580693    1.175906   -0.048117    0.001422   -0.000515    0.000006
H     2.792090    0.799476   -0.131359   -0.504968   -0.203976    0.028270
12
* Frequency(32) 3219.8378
C     1.610401    0.313534   -0.064627    0.044193    0.008794   -0.001787
C     1.456991   -1.059932    0.043216   -0.125503    0.115835   -0.005527
N     0.150456   -1.546271    0.113383    0.002741   -0.000838   -0.000011
C    -1.002695   -0.778045    0.084607    0.002803   -0.000991    0.000006
N    -0.754689    0.578530   -0.023319   -0.000112    0.000237   -0.000017
C     0.489791    1.226322   -0.105138   -0.001013   -0.000125    0.000038
O    -2.121161   -1.255927    0.147962   -0.000625   -0.000085    0.000022
O     0.544843    2.445346   -0.199415    0.000127    0.000150   -0.000020
H     1.728236   -1.302850    0.054709    1.430342   -1.273452    0.059537
H     0.023364   -2.556905    0.190470   -0.007884    0.013520   -0.000829
H    -1.580733    1.175921   -0.048117    0.001422   -0.000515    0.000006
H     2.806373    0.805245   -0.132158   -0.504968   -0.203976    0.028270
12
* Frequency(32) 3219.8378
C     1.610821    0.313618   -0.064644    0.044193    0.008794   -0.001787
C     1.455797   -1.058830    0.043163   -0.125503    0.115835   -0.005527
N     0.150482   -1.546279    0.113383    0.002741   -0.000838   -0.000011
C    -1.002669   -0.778054    0.084607    0.002803   -0.000991    0.000006
N    -0.754690    0.578532   -0.023319   -0.000112    0.000237   -0.000017
C     0.489781    1.226321   -0.105138   -0.001013   -0.000125    0.000038
O    -2.121167   -1.255928    0.147963   -0.000625   -0.000085    0.000022
O     0.544845    2.445347   -0.199415    0.000127    0.000150   -0.000020
H     1.741845   -1.314967    0.055275    1.430342   -1.273452    0.059537
H     0.023289   -2.556776    0.190462   -0.007884    0.013520   -0.000829
H    -1.580720    1.175916   -0.048117    0.001422   -0.000515    0.000006
H     2.801568    0.803304   -0.131889   -0.504968   -0.203976    0.028270
12
* Frequency(32) 3219.8378
C     1.612867    0.314025   -0.064726    0.044193    0.008794   -0.001787
C     1.449988   -1.053469    0.042907   -0.125503    0.115835   -0.005527
N     0.150609   -1.546318    0.113382    0.002741   -0.000838   -0.000011
C    -1.002539   -0.778100    0.084608    0.002803   -0.000991    0.000006
N    -0.754696    0.578543   -0.023320   -0.000112    0.000237   -0.000017
C     0.489734    1.226315   -0.105136   -0.001013   -0.000125    0.000038
O    -2.121196   -1.255932    0.147964   -0.000625   -0.000085    0.000022
O     0.544851    2.445354   -0.199416    0.000127    0.000150   -0.000020
H     1.808044   -1.373904    0.058031    1.430342   -1.273452    0.059537
H     0.022924   -2.556150    0.190424   -0.007884    0.013520   -0.000829
H    -1.580654    1.175892   -0.048117    0.001422   -0.000515    0.000006
H     2.778197    0.793864   -0.130581   -0.504968   -0.203976    0.028270
12
* Frequency(32) 3219.8378
C     1.616315    0.314711   -0.064866    0.044193    0.008794   -0.001787
C     1.440195   -1.044430    0.042476   -0.125503    0.115835   -0.005527
N     0.150823   -1.546383    0.113381    0.002741   -0.000838   -0.000011
C    -1.002320   -0.778178    0.084608    0.002803   -0.000991    0.000006
N    -0.754704    0.578561   -0.023321   -0.000112    0.000237   -0.000017
C     0.489655    1.226305   -0.105133   -0.001013   -0.000125    0.000038
O    -2.121245   -1.255938    0.147965   -0.000625   -0.000085    0.000022
O     0.544860    2.445366   -0.199418    0.000127    0.000150   -0.000020
H     1.919659   -1.473277    0.062677    1.430342   -1.273452    0.059537
H     0.022309   -2.555095    0.190359   -0.007884    0.013520   -0.000829
H    -1.580543    1.175852   -0.048117    0.001422   -0.000515    0.000006
H     2.738793    0.777947   -0.128375   -0.504968   -0.203976    0.028270
12
* Frequency(32) 3219.8378
C     1.620793    0.315602   -0.065047    0.044193    0.008794   -0.001787
C     1.427478   -1.032693    0.041916   -0.125503    0.115835   -0.005527
N     0.151101   -1.546468    0.113380    0.002741   -0.000838   -0.000011
C    -1.002036   -0.778278    0.084609    0.002803   -0.000991    0.000006
N    -0.754716    0.578585   -0.023323   -0.000112    0.000237   -0.000017
C     0.489552    1.226293   -0.105129   -0.001013   -0.000125    0.000038
O    -2.121308   -1.255947    0.147968   -0.000625   -0.000085    0.000022
O     0.544873    2.445381   -0.199420    0.000127    0.000150   -0.000020
H     2.064595   -1.602315    0.068710    1.430342   -1.273452    0.059537
H     0.021510   -2.553726    0.190275   -0.007884    0.013520   -0.000829
H    -1.580399    1.175800   -0.048116    0.001422   -0.000515    0.000006
H     2.687625    0.757278   -0.125510   -0.504968   -0.203976    0.028270
12
* Frequency(32) 3219.8378
C     1.625816    0.316601   -0.065250    0.044193    0.008794   -0.001787
C     1.413215   -1.019528    0.041288   -0.125503    0.115835   -0.005527
N     0.151412   -1.546563    0.113379    0.002741   -0.000838   -0.000011
C    -1.001718   -0.778391    0.084609    0.002803   -0.000991    0.000006
N    -0.754728    0.578612   -0.023325   -0.000112    0.000237   -0.000017
C     0.489437    1.226278   -0.105125   -0.001013   -0.000125    0.000038
O    -2.121379   -1.255957    0.147970   -0.000625   -0.000085    0.000022
O     0.544888    2.445398   -0.199422    0.000127    0.000150   -0.000020
H     2.227146   -1.747036    0.075476    1.430342   -1.273452    0.059537
H     0.020614   -2.552189    0.190181   -0.007884    0.013520   -0.000829
H    -1.580237    1.175741   -0.048115    0.001422   -0.000515    0.000006
H     2.630238    0.734097   -0.122298   -0.504968   -0.203976    0.028270
