12
* (null), Energy   -1000.0000000
C     1.625816    0.316601   -0.065250    0.000000    0.000000    0.000000
C     1.413215   -1.019528    0.041288    0.000000    0.000000    0.000000
N     0.151412   -1.546563    0.113379    0.000000    0.000000    0.000000
C    -1.001718   -0.778391    0.084609    0.000000    0.000000    0.000000
N    -0.754728    0.578612   -0.023325    0.000000    0.000000    0.000000
C     0.489437    1.226278   -0.105125    0.000000    0.000000    0.000000
O    -2.121379   -1.255957    0.147970    0.000000    0.000000    0.000000
O     0.544888    2.445398   -0.199422    0.000000    0.000000    0.000000
H     2.227146   -1.747036    0.075476    0.000000    0.000000    0.000000
H     0.020614   -2.552189    0.190181    0.000000    0.000000    0.000000
H    -1.580237    1.175741   -0.048115    0.000000    0.000000    0.000000
H     2.630238    0.734097   -0.122298    0.000000    0.000000    0.000000
12
* Frequency(5)    0.0000
C     1.625816    0.316601   -0.065250    0.000000    0.000000    0.000000
C     1.413215   -1.019528    0.041288    0.000000    0.000000    0.000000
N     0.151412   -1.546563    0.113379    0.000000    0.000000    0.000000
C    -1.001718   -0.778391    0.084609    0.000000    0.000000    0.000000
N    -0.754728    0.578612   -0.023325    0.000000    0.000000    0.000000
C     0.489437    1.226278   -0.105125    0.000000    0.000000    0.000000
O    -2.121379   -1.255957    0.147970    0.000000    0.000000    0.000000
O     0.544888    2.445398   -0.199422    0.000000    0.000000    0.000000
H     2.227146   -1.747036    0.075476    0.000000    0.000000    0.000000
H     0.020614   -2.552189    0.190181    0.000000    0.000000    0.000000
H    -1.580237    1.175741   -0.048115    0.000000    0.000000    0.000000
H     2.630238    0.734097   -0.122298    0.000000    0.000000    0.000000
12
* Frequency(5)    0.0000
C     1.625816    0.316601   -0.065250    0.000000    0.000000    0.000000
C     1.413215   -1.019528    0.041288    0.000000    0.000000    0.000000
N     0.151412   -1.546563    0.113379    0.000000    0.000000    0.000000
C    -1.001718   -0.778391    0.084609    0.000000    0.000000    0.000000
N    -0.754728    0.578612   -0.023325    0.000000    0.000000    0.000000
C     0.489437    1.226278   -0.105125    0.000000    0.000000    0.000000
O    -2.121379   -1.255957    0.147970    0.000000    0.000000    0.000000
O     0.544888    2.445398   -0.199422    0.000000    0.000000    0.000000
H     2.227146   -1.747036    0.075476    0.000000    0.000000    0.000000
H     0.020614   -2.552189    0.190181    0.000000    0.000000    0.000000
H    -1.580237    1.175741   -0.048115    0.000000    0.000000    0.000000
H     2.630238    0.734097   -0.122298    0.000000    0.000000    0.000000
12
* Frequency(5)    0.0000
C     1.625816    0.316601   -0.065250    0.000000    0.000000    0.000000
C     1.413215   -1.019528    0.041288    0.000000    0.000000    0.000000
N     0.151412   -1.546563    0.113379    0.000000    0.000000    0.000000
C    -1.001718   -0.778391    0.084609    0.000000    0.000000    0.000000
N    -0.754728    0.578612   -0.023325    0.000000    0.000000    0.000000
C     0.489437    1.226278   -0.105125    0.000000    0.000000    0.000000
O    -2.121379   -1.255957    0.147970    0.000000    0.000000    0.000000
O     0.544888    2.445398   -0.199422    0.000000    0.000000    0.000000
H     2.227146   -1.747036    0.075476    0.000000    0.000000    0.000000
H     0.020614   -2.552189    0.190181    0.000000    0.000000    0.000000
H    -1.580237    1.175741   -0.048115    0.000000    0.000000    0.000000
H     2.630238    0.734097   -0.122298    0.000000    0.000000    0.000000
12
* Frequency(5)    0.0000
C     1.625816    0.316601   -0.065250    0.000000    0.000000    0.000000
C     1.413215   -1.019528    0.041288    0.000000    0.000000    0.000000
N     0.151412   -1.546563    0.113379    0.000000    0.000000    0.000000
C    -1.001718   -0.778391    0.084609    0.000000    0.000000    0.000000
N    -0.754728    0.578612   -0.023325    0.000000    0.000000    0.000000
C     0.489437    1.226278   -0.105125    0.000000    0.000000    0.000000
O    -2.121379   -1.255957    0.147970    0.000000    0.000000    0.000000
O     0.544888    2.445398   -0.199422    0.000000    0.000000    0.000000
H     2.227146   -1.747036    0.075476    0.000000    0.000000    0.000000
H     0.020614   -2.552189    0.190181    0.000000    0.000000    0.000000
H    -1.580237    1.175741   -0.048115    0.000000    0.000000    0.000000
H     2.630238    0.734097   -0.122298    0.000000    0.000000    0.000000
12
* Frequency(5)    0.0000
C     1.625816    0.316601   -0.065250    0.000000    0.000000    0.000000
C     1.413215   -1.019528    0.041288    0.000000    0.000000    0.000000
N     0.151412   -1.546563    0.113379    0.000000    0.000000    0.000000
C    -1.001718   -0.778391    0.084609    0.000000    0.000000    0.000000
N    -0.754728    0.578612   -0.023325    0.000000    0.000000    0.000000
C     0.489437    1.226278   -0.105125    0.000000    0.000000    0.000000
O    -2.121379   -1.255957    0.147970    0.000000    0.000000    0.000000
O     0.544888    2.445398   -0.199422    0.000000    0.000000    0.000000
H     2.227146   -1.747036    0.075476    0.000000    0.000000    0.000000
H     0.020614   -2.552189    0.190181    0.000000    0.000000    0.000000
H    -1.580237    1.175741   -0.048115    0.000000    0.000000    0.000000
H     2.630238    0.734097   -0.122298    0.000000    0.000000    0.000000
12
* Frequency(5)    0.0000
C     1.625816    0.316601   -0.065250    0.000000    0.000000    0.000000
C     1.413215   -1.019528    0.041288    0.000000    0.000000    0.000000
N     0.151412   -1.546563    0.113379    0.000000    0.000000    0.000000
C    -1.001718   -0.778391    0.084609    0.000000    0.000000    0.000000
N    -0.754728    0.578612   -0.023325    0.000000    0.000000    0.000000
C     0.489437    1.226278   -0.105125    0.000000    0.000000    0.000000
O    -2.121379   -1.255957    0.147970    0.000000    0.000000    0.000000
O     0.544888    2.445398   -0.199422    0.000000    0.000000    0.000000
H     2.227146   -1.747036    0.075476    0.000000    0.000000    0.000000
H     0.020614   -2.552189    0.190181    0.000000    0.000000    0.000000
H    -1.580237    1.175741   -0.048115    0.000000    0.000000    0.000000
H     2.630238    0.734097   -0.122298    0.000000    0.000000    0.000000
12
* Frequency(5)    0.0000
C     1.625816    0.316601   -0.065250    0.000000    0.000000    0.000000
C     1.413215   -1.019528    0.041288    0.000000    0.000000    0.000000
N     0.151412   -1.546563    0.113379    0.000000    0.000000    0.000000
C    -1.001718   -0.778391    0.084609    0.000000    0.000000    0.000000
N    -0.754728    0.578612   -0.023325    0.000000    0.000000    0.000000
C     0.489437    1.226278   -0.105125    0.000000    0.000000    0.000000
O    -2.121379   -1.255957    0.147970    0.000000    0.000000    0.000000
O     0.544888    2.445398   -0.199422    0.000000    0.000000    0.000000
H     2.227146   -1.747036    0.075476    0.000000    0.000000    0.000000
H     0.020614   -2.552189    0.190181    0.000000    0.000000    0.000000
H    -1.580237    1.175741   -0.048115    0.000000    0.000000    0.000000
H     2.630238    0.734097   -0.122298    0.000000    0.000000    0.000000
12
* Frequency(5)    0.0000
C     1.625816    0.316601   -0.065250    0.000000    0.000000    0.000000
C     1.413215   -1.019528    0.041288    0.000000    0.000000    0.000000
N     0.151412   -1.546563    0.113379    0.000000    0.000000    0.000000
C    -1.001718   -0.778391    0.084609    0.000000    0.000000    0.000000
N    -0.754728    0.578612   -0.023325    0.000000    0.000000    0.000000
C     0.489437    1.226278   -0.105125    0.000000    0.000000    0.000000
O    -2.121379   -1.255957    0.147970    0.000000    0.000000    0.000000
O     0.544888    2.445398   -0.199422    0.000000    0.000000    0.000000
H     2.227146   -1.747036    0.075476    0.000000    0.000000    0.000000
H     0.020614   -2.552189    0.190181    0.000000    0.000000    0.000000
H    -1.580237    1.175741   -0.048115    0.000000    0.000000    0.000000
H     2.630238    0.734097   -0.122298    0.000000    0.000000    0.000000
12
* Frequency(5)    0.0000
C     1.625816    0.316601   -0.065250    0.000000    0.000000    0.000000
C     1.413215   -1.019528    0.041288    0.000000    0.000000    0.000000
N     0.151412   -1.546563    0.113379    0.000000    0.000000    0.000000
C    -1.001718   -0.778391    0.084609    0.000000    0.000000    0.000000
N    -0.754728    0.578612   -0.023325    0.000000    0.000000    0.000000
C     0.489437    1.226278   -0.105125    0.000000    0.000000    0.000000
O    -2.121379   -1.255957    0.147970    0.000000    0.000000    0.000000
O     0.544888    2.445398   -0.199422    0.000000    0.000000    0.000000
H     2.227146   -1.747036    0.075476    0.000000    0.000000    0.000000
H     0.020614   -2.552189    0.190181    0.000000    0.000000    0.000000
H    -1.580237    1.175741   -0.048115    0.000000    0.000000    0.000000
H     2.630238    0.734097   -0.122298    0.000000    0.000000    0.000000
12
* Frequency(5)    0.0000
C     1.625816    0.316601   -0.065250    0.000000    0.000000    0.000000
C     1.413215   -1.019528    0.041288    0.000000    0.000000    0.000000
N     0.151412   -1.546563    0.113379    0.000000    0.000000    0.000000
C    -1.001718   -0.778391    0.084609    0.000000    0.000000    0.000000
N    -0.754728    0.578612   -0.023325    0.000000    0.000000    0.000000
C     0.489437    1.226278   -0.105125    0.000000    0.000000    0.000000
O    -2.121379   -1.255957    0.147970    0.000000    0.000000    0.000000
O     0.544888    2.445398   -0.199422    0.000000    0.000000    0.000000
H     2.227146   -1.747036    0.075476    0.000000    0.000000    0.000000
H     0.020614   -2.552189    0.190181    0.000000    0.000000    0.000000
H    -1.580237    1.175741   -0.048115    0.000000    0.000000    0.000000
H     2.630238    0.734097   -0.122298    0.000000    0.000000    0.000000
12
* Frequency(5)    0.0000
C     1.625816    0.316601   -0.065250    0.000000    0.000000    0.000000
C     1.413215   -1.019528    0.041288    0.000000    0.000000    0.000000
N     0.151412   -1.546563    0.113379    0.000000    0.000000    0.000000
C    -1.001718   -0.778391    0.084609    0.000000    0.000000    0.000000
N    -0.754728    0.578612   -0.023325    0.000000    0.000000    0.000000
C     0.489437    1.226278   -0.105125    0.000000    0.000000    0.000000
O    -2.121379   -1.255957    0.147970    0.000000    0.000000    0.000000
O     0.544888    2.445398   -0.199422    0.000000    0.000000    0.000000
H     2.227146   -1.747036    0.075476    0.000000    0.000000    0.000000
H     0.020614   -2.552189    0.190181    0.000000    0.000000    0.000000
H    -1.580237    1.175741   -0.048115    0.000000    0.000000    0.000000
H     2.630238    0.734097   -0.122298    0.000000    0.000000    0.000000
12
* Frequency(5)    0.0000
C     1.625816    0.316601   -0.065250    0.000000    0.000000    0.000000
C     1.413215   -1.019528    0.041288    0.000000    0.000000    0.000000
N     0.151412   -1.546563    0.113379    0.000000    0.000000    0.000000
C    -1.001718   -0.778391    0.084609    0.000000    0.000000    0.000000
N    -0.754728    0.578612   -0.023325    0.000000    0.000000    0.000000
C     0.489437    1.226278   -0.105125    0.000000    0.000000    0.000000
O    -2.121379   -1.255957    0.147970    0.000000    0.000000    0.000000
O     0.544888    2.445398   -0.199422    0.000000    0.000000    0.000000
H     2.227146   -1.747036    0.075476    0.000000    0.000000    0.000000
H     0.020614   -2.552189    0.190181    0.000000    0.000000    0.000000
H    -1.580237    1.175741   -0.048115    0.000000    0.000000    0.000000
H     2.630238    0.734097   -0.122298    0.000000    0.000000    0.000000
12
* Frequency(5)    0.0000
C     1.625816    0.316601   -0.065250    0.000000    0.000000    0.000000
C     1.413215   -1.019528    0.041288    0.000000    0.000000    0.000000
N     0.151412   -1.546563    0.113379    0.000000    0.000000    0.000000
C    -1.001718   -0.778391    0.084609    0.000000    0.000000    0.000000
N    -0.754728    0.578612   -0.023325    0.000000    0.000000    0.000000
C     0.489437    1.226278   -0.105125    0.000000    0.000000    0.000000
O    -2.121379   -1.255957    0.147970    0.000000    0.000000    0.000000
O     0.544888    2.445398   -0.199422    0.000000    0.000000    0.000000
H     2.227146   -1.747036    0.075476    0.000000    0.000000    0.000000
H     0.020614   -2.552189    0.190181    0.000000    0.000000    0.000000
H    -1.580237    1.175741   -0.048115    0.000000    0.000000    0.000000
H     2.630238    0.734097   -0.122298    0.000000    0.000000    0.000000
12
* Frequency(5)    0.0000
C     1.625816    0.316601   -0.065250    0.000000    0.000000    0.000000
C     1.413215   -1.019528    0.041288    0.000000    0.000000    0.000000
N     0.151412   -1.546563    0.113379    0.000000    0.000000    0.000000
C    -1.001718   -0.778391    0.084609    0.000000    0.000000    0.000000
N    -0.754728    0.578612   -0.023325    0.000000    0.000000    0.000000
C     0.489437    1.226278   -0.105125    0.000000    0.000000    0.000000
O    -2.121379   -1.255957    0.147970    0.000000    0.000000    0.000000
O     0.544888    2.445398   -0.199422    0.000000    0.000000    0.000000
H     2.227146   -1.747036    0.075476    0.000000    0.000000    0.000000
H     0.020614   -2.552189    0.190181    0.000000    0.000000    0.000000
H    -1.580237    1.175741   -0.048115    0.000000    0.000000    0.000000
H     2.630238    0.734097   -0.122298    0.000000    0.000000    0.000000
12
* Frequency(5)    0.0000
C     1.625816    0.316601   -0.065250    0.000000    0.000000    0.000000
C     1.413215   -1.019528    0.041288    0.000000    0.000000    0.000000
N     0.151412   -1.546563    0.113379    0.000000    0.000000    0.000000
C    -1.001718   -0.778391    0.084609    0.000000    0.000000    0.000000
N    -0.754728    0.578612   -0.023325    0.000000    0.000000    0.000000
C     0.489437    1.226278   -0.105125    0.000000    0.000000    0.000000
O    -2.121379   -1.255957    0.147970    0.000000    0.000000    0.000000
O     0.544888    2.445398   -0.199422    0.000000    0.000000    0.000000
H     2.227146   -1.747036    0.075476    0.000000    0.000000    0.000000
H     0.020614   -2.552189    0.190181    0.000000    0.000000    0.000000
H    -1.580237    1.175741   -0.048115    0.000000    0.000000    0.000000
H     2.630238    0.734097   -0.122298    0.000000    0.000000    0.000000
12
* Frequency(5)    0.0000
C     1.625816    0.316601   -0.065250    0.000000    0.000000    0.000000
C     1.413215   -1.019528    0.041288    0.000000    0.000000    0.000000
N     0.151412   -1.546563    0.113379    0.000000    0.000000    0.000000
C    -1.001718   -0.778391    0.084609    0.000000    0.000000    0.000000
N    -0.754728    0.578612   -0.023325    0.000000    0.000000    0.000000
C     0.489437    1.226278   -0.105125    0.000000    0.000000    0.000000
O    -2.121379   -1.255957    0.147970    0.000000    0.000000    0.000000
O     0.544888    2.445398   -0.199422    0.000000    0.000000    0.000000
H     2.227146   -1.747036    0.075476    0.000000    0.000000    0.000000
H     0.020614   -2.552189    0.190181    0.000000    0.000000    0.000000
H    -1.580237    1.175741   -0.048115    0.000000    0.000000    0.000000
H     2.630238    0.734097   -0.122298    0.000000    0.000000    0.000000
12
* Frequency(5)    0.0000
C     1.625816    0.316601   -0.065250    0.000000    0.000000    0.000000
C     1.413215   -1.019528    0.041288    0.000000    0.000000    0.000000
N     0.151412   -1.546563    0.113379    0.000000    0.000000    0.000000
C    -1.001718   -0.778391    0.084609    0.000000    0.000000    0.000000
N    -0.754728    0.578612   -0.023325    0.000000    0.000000    0.000000
C     0.489437    1.226278   -0.105125    0.000000    0.000000    0.000000
O    -2.121379   -1.255957    0.147970    0.000000    0.000000    0.000000
O     0.544888    2.445398   -0.199422    0.000000    0.000000    0.000000
H     2.227146   -1.747036    0.075476    0.000000    0.000000    0.000000
H     0.020614   -2.552189    0.190181    0.000000    0.000000    0.000000
H    -1.580237    1.175741   -0.048115    0.000000    0.000000    0.000000
H     2.630238    0.734097   -0.122298    0.000000    0.000000    0.000000
12
* Frequency(5)    0.0000
C     1.625816    0.316601   -0.065250    0.000000    0.000000    0.000000
C     1.413215   -1.019528    0.041288    0.000000    0.000000    0.000000
N     0.151412   -1.546563    0.113379    0.000000    0.000000    0.000000
C    -1.001718   -0.778391    0.084609    0.000000    0.000000    0.000000
N    -0.754728    0.578612   -0.023325    0.000000    0.000000    0.000000
C     0.489437    1.226278   -0.105125    0.000000    0.000000    0.000000
O    -2.121379   -1.255957    0.147970    0.000000    0.000000    0.000000
O     0.544888    2.445398   -0.199422    0.000000    0.000000    0.000000
H     2.227146   -1.747036    0.075476    0.000000    0.000000    0.000000
H     0.020614   -2.552189    0.190181    0.000000    0.000000    0.000000
H    -1.580237    1.175741   -0.048115    0.000000    0.000000    0.000000
H     2.630238    0.734097   -0.122298    0.000000    0.000000    0.000000
12
* Frequency(5)    0.0000
C     1.625816    0.316601   -0.065250    0.000000    0.000000    0.000000
C     1.413215   -1.019528    0.041288    0.000000    0.000000    0.000000
N     0.151412   -1.546563    0.113379    0.000000    0.000000    0.000000
C    -1.001718   -0.778391    0.084609    0.000000    0.000000    0.000000
N    -0.754728    0.578612   -0.023325    0.000000    0.000000    0.000000
C     0.489437    1.226278   -0.105125    0.000000    0.000000    0.000000
O    -2.121379   -1.255957    0.147970    0.000000    0.000000    0.000000
O     0.544888    2.445398   -0.199422    0.000000    0.000000    0.000000
H     2.227146   -1.747036    0.075476    0.000000    0.000000    0.000000
H     0.020614   -2.552189    0.190181    0.000000    0.000000    0.000000
H    -1.580237    1.175741   -0.048115    0.000000    0.000000    0.000000
H     2.630238    0.734097   -0.122298    0.000000    0.000000    0.000000
