12
* (null), Energy   -1000.0000000
C     1.625816    0.316601   -0.065250    0.000841    0.002791   -0.000235
C     1.413215   -1.019528    0.041288    0.003127    0.000704   -0.000131
N     0.151412   -1.546563    0.113379   -0.018375   -0.147711    0.011294
C    -1.001718   -0.778391    0.084609   -0.000990    0.001250   -0.000069
N    -0.754728    0.578612   -0.023325   -0.003371    0.003631   -0.000191
C     0.489437    1.226278   -0.105125    0.000709   -0.001501    0.000095
O    -2.121379   -1.255957    0.147970   -0.000568   -0.000251    0.000032
O     0.544888    2.445398   -0.199422   -0.000097    0.000938   -0.000072
H     2.227146   -1.747036    0.075476   -0.010561    0.007090   -0.000246
H     0.020614   -2.552189    0.190181    0.240917    1.973417   -0.150536
H    -1.580237    1.175741   -0.048115    0.040625   -0.027762    0.001112
H     2.630238    0.734097   -0.122298   -0.002179   -0.000171    0.000065
12
* Frequency(35) 3601.1864
C     1.625911    0.316919   -0.065277    0.000841    0.002791   -0.000235
C     1.413570   -1.019448    0.041273    0.003127    0.000704   -0.000131
N     0.149324   -1.563350    0.114662   -0.018375   -0.147711    0.011294
C    -1.001830   -0.778249    0.084601   -0.000990    0.001250   -0.000069
N    -0.755111    0.579025   -0.023346   -0.003371    0.003631   -0.000191
C     0.489518    1.226108   -0.105114    0.000709   -0.001501    0.000095
O    -2.121444   -1.255985    0.147974   -0.000568   -0.000251    0.000032
O     0.544877    2.445505   -0.199430   -0.000097    0.000938   -0.000072
H     2.225946   -1.746231    0.075448   -0.010561    0.007090   -0.000246
H     0.047993   -2.327920    0.173073    0.240917    1.973417   -0.150536
H    -1.575621    1.172586   -0.047989    0.040625   -0.027762    0.001112
H     2.629990    0.734078   -0.122290   -0.002179   -0.000171    0.000065
12
* Frequency(35) 3601.1864
C     1.625996    0.317201   -0.065301    0.000841    0.002791   -0.000235
C     1.413887   -1.019377    0.041260    0.003127    0.000704   -0.000131
N     0.147462   -1.578318    0.115807   -0.018375   -0.147711    0.011294
C    -1.001930   -0.778122    0.084594   -0.000990    0.001250   -0.000069
N    -0.755453    0.579393   -0.023366   -0.003371    0.003631   -0.000191
C     0.489590    1.225956   -0.105104    0.000709   -0.001501    0.000095
O    -2.121501   -1.256011    0.147977   -0.000568   -0.000251    0.000032
O     0.544867    2.445600   -0.199437   -0.000097    0.000938   -0.000072
H     2.224876   -1.745512    0.075423   -0.010561    0.007090   -0.000246
H     0.072405   -2.127955    0.157819    0.240917    1.973417   -0.150536
H    -1.571504    1.169773   -0.047876    0.040625   -0.027762    0.001112
H     2.629769    0.734060   -0.122284   -0.002179   -0.000171    0.000065
12
* Frequency(35) 3601.1864
C     1.626062    0.317419   -0.065319    0.000841    0.002791   -0.000235
C     1.414131   -1.019322    0.041249    0.003127    0.000704   -0.000131
N     0.146028   -1.589844    0.116688   -0.018375   -0.147711    0.011294
C    -1.002008   -0.778024    0.084589   -0.000990    0.001250   -0.000069
N    -0.755716    0.579676   -0.023381   -0.003371    0.003631   -0.000191
C     0.489645    1.225839   -0.105097    0.000709   -0.001501    0.000095
O    -2.121546   -1.256030    0.147980   -0.000568   -0.000251    0.000032
O     0.544859    2.445673   -0.199443   -0.000097    0.000938   -0.000072
H     2.224052   -1.744959    0.075404   -0.010561    0.007090   -0.000246
H     0.091205   -1.973962    0.146072    0.240917    1.973417   -0.150536
H    -1.568334    1.167607   -0.047790    0.040625   -0.027762    0.001112
H     2.629599    0.734047   -0.122279   -0.002179   -0.000171    0.000065
12
* Frequency(35) 3601.1864
C     1.626101    0.317548   -0.065330    0.000841    0.002791   -0.000235
C     1.414276   -1.019290    0.041243    0.003127    0.000704   -0.000131
N     0.145177   -1.596680    0.117211   -0.018375   -0.147711    0.011294
C    -1.002054   -0.777966    0.084586   -0.000990    0.001250   -0.000069
N    -0.755872    0.579844   -0.023389   -0.003371    0.003631   -0.000191
C     0.489678    1.225769   -0.105092    0.000709   -0.001501    0.000095
O    -2.121572   -1.256042    0.147981   -0.000568   -0.000251    0.000032
O     0.544855    2.445716   -0.199446   -0.000097    0.000938   -0.000072
H     2.223563   -1.744631    0.075392   -0.010561    0.007090   -0.000246
H     0.102355   -1.882628    0.139105    0.240917    1.973417   -0.150536
H    -1.566454    1.166322   -0.047738    0.040625   -0.027762    0.001112
H     2.629498    0.734039   -0.122276   -0.002179   -0.000171    0.000065
12
* Frequency(35) 3601.1864
C     1.626109    0.317575   -0.065332    0.000841    0.002791   -0.000235
C     1.414306   -1.019283    0.041242    0.003127    0.000704   -0.000131
N     0.145003   -1.598086    0.117318   -0.018375   -0.147711    0.011294
C    -1.002063   -0.777955    0.084585   -0.000990    0.001250   -0.000069
N    -0.755904    0.579879   -0.023391   -0.003371    0.003631   -0.000191
C     0.489685    1.225755   -0.105092    0.000709   -0.001501    0.000095
O    -2.121577   -1.256044    0.147981   -0.000568   -0.000251    0.000032
O     0.544854    2.445725   -0.199447   -0.000097    0.000938   -0.000072
H     2.223462   -1.744563    0.075390   -0.010561    0.007090   -0.000246
H     0.104647   -1.863852    0.137673    0.240917    1.973417   -0.150536
H    -1.566067    1.166058   -0.047728    0.040625   -0.027762    0.001112
H     2.629477    0.734037   -0.122275   -0.002179   -0.000171    0.000065
12
* Frequency(35) 3601.1864
C     1.626085    0.317496   -0.065325    0.000841    0.002791   -0.000235
C     1.414217   -1.019303    0.041246    0.003127    0.000704   -0.000131
N     0.145522   -1.593908    0.116999   -0.018375   -0.147711    0.011294
C    -1.002035   -0.777990    0.084587   -0.000990    0.001250   -0.000069
N    -0.755809    0.579776   -0.023386   -0.003371    0.003631   -0.000191
C     0.489665    1.225797   -0.105094    0.000709   -0.001501    0.000095
O    -2.121561   -1.256037    0.147981   -0.000568   -0.000251    0.000032
O     0.544857    2.445698   -0.199445   -0.000097    0.000938   -0.000072
H     2.223761   -1.744764    0.075397   -0.010561    0.007090   -0.000246
H     0.097833   -1.919668    0.141931    0.240917    1.973417   -0.150536
H    -1.567216    1.166843   -0.047759    0.040625   -0.027762    0.001112
H     2.629539    0.734042   -0.122277   -0.002179   -0.000171    0.000065
12
* Frequency(35) 3601.1864
C     1.626032    0.317320   -0.065311    0.000841    0.002791   -0.000235
C     1.414020   -1.019347    0.041254    0.003127    0.000704   -0.000131
N     0.146680   -1.584600    0.116287   -0.018375   -0.147711    0.011294
C    -1.001973   -0.778069    0.084591   -0.000990    0.001250   -0.000069
N    -0.755596    0.579547   -0.023374   -0.003371    0.003631   -0.000191
C     0.489620    1.225892   -0.105100    0.000709   -0.001501    0.000095
O    -2.121526   -1.256021    0.147979   -0.000568   -0.000251    0.000032
O     0.544863    2.445639   -0.199440   -0.000097    0.000938   -0.000072
H     2.224427   -1.745211    0.075412   -0.010561    0.007090   -0.000246
H     0.082651   -2.044028    0.151417    0.240917    1.973417   -0.150536
H    -1.569776    1.168592   -0.047829    0.040625   -0.027762    0.001112
H     2.629676    0.734053   -0.122281   -0.002179   -0.000171    0.000065
12
* Frequency(35) 3601.1864
C     1.625956    0.317066   -0.065289    0.000841    0.002791   -0.000235
C     1.413736   -1.019411    0.041266    0.003127    0.000704   -0.000131
N     0.148351   -1.571169    0.115260   -0.018375   -0.147711    0.011294
C    -1.001883   -0.778182    0.084598   -0.000990    0.001250   -0.000069
N    -0.755290    0.579217   -0.023356   -0.003371    0.003631   -0.000191
C     0.489555    1.226028   -0.105109    0.000709   -0.001501    0.000095
O    -2.121474   -1.255999    0.147976   -0.000568   -0.000251    0.000032
O     0.544872    2.445554   -0.199434   -0.000097    0.000938   -0.000072
H     2.225387   -1.745855    0.075435   -0.010561    0.007090   -0.000246
H     0.060747   -2.223454    0.165104    0.240917    1.973417   -0.150536
H    -1.573470    1.171117   -0.047930    0.040625   -0.027762    0.001112
H     2.629875    0.734069   -0.122287   -0.002179   -0.000171    0.000065
12
* Frequency(35) 3601.1864
C     1.625864    0.316762   -0.065264    0.000841    0.002791   -0.000235
C     1.413395   -1.019488    0.041280    0.003127    0.000704   -0.000131
N     0.150354   -1.555073    0.114030   -0.018375   -0.147711    0.011294
C    -1.001775   -0.778319    0.084605   -0.000990    0.001250   -0.000069
N    -0.754923    0.578821   -0.023336   -0.003371    0.003631   -0.000191
C     0.489478    1.226192   -0.105119    0.000709   -0.001501    0.000095
O    -2.121412   -1.255971    0.147972   -0.000568   -0.000251    0.000032
O     0.544882    2.445452   -0.199426   -0.000097    0.000938   -0.000072
H     2.226538   -1.746628    0.075461   -0.010561    0.007090   -0.000246
H     0.034493   -2.438504    0.181509    0.240917    1.973417   -0.150536
H    -1.577897    1.174142   -0.048051    0.040625   -0.027762    0.001112
H     2.630112    0.734087   -0.122294   -0.002179   -0.000171    0.000065
12
* Frequency(35) 3601.1864
C     1.625767    0.316441   -0.065237    0.000841    0.002791   -0.000235
C     1.413035   -1.019569    0.041296    0.003127    0.000704   -0.000131
N     0.152471   -1.538054    0.112728   -0.018375   -0.147711    0.011294
C    -1.001661   -0.778463    0.084613   -0.000990    0.001250   -0.000069
N    -0.754534    0.578403   -0.023314   -0.003371    0.003631   -0.000191
C     0.489396    1.226365   -0.105130    0.000709   -0.001501    0.000095
O    -2.121347   -1.255942    0.147968   -0.000568   -0.000251    0.000032
O     0.544893    2.445344   -0.199418   -0.000097    0.000938   -0.000072
H     2.227755   -1.747445    0.075490   -0.010561    0.007090   -0.000246
H     0.006736   -2.665874    0.198853    0.240917    1.973417   -0.150536
H    -1.582578    1.177341   -0.048179    0.040625   -0.027762    0.001112
H     2.630363    0.734107   -0.122301   -0.002179   -0.000171    0.000065
12
* Frequency(35) 3601.1864
C     1.625675    0.316137   -0.065211    0.000841    0.002791   -0.000235
C     1.412694   -1.019646    0.041310    0.003127    0.000704   -0.000131
N     0.154473   -1.521957    0.111498   -0.018375   -0.147711    0.011294
C    -1.001553   -0.778599    0.084621   -0.000990    0.001250   -0.000069
N    -0.754167    0.578007   -0.023293   -0.003371    0.003631   -0.000191
C     0.489319    1.226528   -0.105141    0.000709   -0.001501    0.000095
O    -2.121285   -1.255915    0.147965   -0.000568   -0.000251    0.000032
O     0.544904    2.445242   -0.199410   -0.000097    0.000938   -0.000072
H     2.228906   -1.748217    0.075517   -0.010561    0.007090   -0.000246
H    -0.019518   -2.880924    0.215257    0.240917    1.973417   -0.150536
H    -1.587005    1.180366   -0.048301    0.040625   -0.027762    0.001112
H     2.630601    0.734126   -0.122308   -0.002179   -0.000171    0.000065
12
* Frequency(35) 3601.1864
C     1.625599    0.315883   -0.065190    0.000841    0.002791   -0.000235
C     1.412410   -1.019710    0.041322    0.003127    0.000704   -0.000131
N     0.156144   -1.508527    0.110471   -0.018375   -0.147711    0.011294
C    -1.001463   -0.778713    0.084627   -0.000990    0.001250   -0.000069
N    -0.753860    0.577677   -0.023275   -0.003371    0.003631   -0.000191
C     0.489255    1.226665   -0.105149    0.000709   -0.001501    0.000095
O    -2.121233   -1.255892    0.147962   -0.000568   -0.000251    0.000032
O     0.544913    2.445157   -0.199404   -0.000097    0.000938   -0.000072
H     2.229866   -1.748862    0.075539   -0.010561    0.007090   -0.000246
H    -0.041423   -3.060351    0.228945    0.240917    1.973417   -0.150536
H    -1.590698    1.182890   -0.048402    0.040625   -0.027762    0.001112
H     2.630799    0.734141   -0.122314   -0.002179   -0.000171    0.000065
12
* Frequency(35) 3601.1864
C     1.625546    0.315707   -0.065175    0.000841    0.002791   -0.000235
C     1.412213   -1.019754    0.041330    0.003127    0.000704   -0.000131
N     0.157302   -1.499219    0.109759   -0.018375   -0.147711    0.011294
C    -1.001400   -0.778792    0.084632   -0.000990    0.001250   -0.000069
N    -0.753648    0.577448   -0.023263   -0.003371    0.003631   -0.000191
C     0.489210    1.226759   -0.105155    0.000709   -0.001501    0.000095
O    -2.121197   -1.255876    0.147960   -0.000568   -0.000251    0.000032
O     0.544919    2.445097   -0.199399   -0.000097    0.000938   -0.000072
H     2.230531   -1.749309    0.075554   -0.010561    0.007090   -0.000246
H    -0.056604   -3.184710    0.238431    0.240917    1.973417   -0.150536
H    -1.593258    1.184640   -0.048472    0.040625   -0.027762    0.001112
H     2.630936    0.734152   -0.122318   -0.002179   -0.000171    0.000065
12
* Frequency(35) 3601.1864
C     1.625522    0.315628   -0.065168    0.000841    0.002791   -0.000235
C     1.412125   -1.019774    0.041334    0.003127    0.000704   -0.000131
N     0.157822   -1.495041    0.109440   -0.018375   -0.147711    0.011294
C    -1.001372   -0.778827    0.084633   -0.000990    0.001250   -0.000069
N    -0.753553    0.577346   -0.023258   -0.003371    0.003631   -0.000191
C     0.489190    1.226802   -0.105158    0.000709   -0.001501    0.000095
O    -2.121181   -1.255869    0.147959   -0.000568   -0.000251    0.000032
O     0.544922    2.445071   -0.199397   -0.000097    0.000938   -0.000072
H     2.230830   -1.749509    0.075561   -0.010561    0.007090   -0.000246
H    -0.063418   -3.240526    0.242689    0.240917    1.973417   -0.150536
H    -1.594408    1.185425   -0.048503    0.040625   -0.027762    0.001112
H     2.630998    0.734157   -0.122320   -0.002179   -0.000171    0.000065
12
* Frequency(35) 3601.1864
C     1.625530    0.315655   -0.065170    0.000841    0.002791   -0.000235
C     1.412154   -1.019767    0.041333    0.003127    0.000704   -0.000131
N     0.157647   -1.496446    0.109547   -0.018375   -0.147711    0.011294
C    -1.001382   -0.778815    0.084633   -0.000990    0.001250   -0.000069
N    -0.753585    0.577380   -0.023260   -0.003371    0.003631   -0.000191
C     0.489197    1.226788   -0.105157    0.000709   -0.001501    0.000095
O    -2.121187   -1.255871    0.147959   -0.000568   -0.000251    0.000032
O     0.544921    2.445080   -0.199398   -0.000097    0.000938   -0.000072
H     2.230730   -1.749442    0.075559   -0.010561    0.007090   -0.000246
H    -0.061126   -3.221750    0.241256    0.240917    1.973417   -0.150536
H    -1.594021    1.185161   -0.048493    0.040625   -0.027762    0.001112
H     2.630977    0.734155   -0.122320   -0.002179   -0.000171    0.000065
12
* Frequency(35) 3601.1864
C     1.625569    0.315784   -0.065181    0.000841    0.002791   -0.000235
C     1.412299   -1.019735    0.041326    0.003127    0.000704   -0.000131
N     0.156796   -1.503283    0.110070   -0.018375   -0.147711    0.011294
C    -1.001428   -0.778757    0.084630   -0.000990    0.001250   -0.000069
N    -0.753741    0.577548   -0.023269   -0.003371    0.003631   -0.000191
C     0.489229    1.226718   -0.105153    0.000709   -0.001501    0.000095
O    -2.121213   -1.255883    0.147961   -0.000568   -0.000251    0.000032
O     0.544916    2.445123   -0.199401   -0.000097    0.000938   -0.000072
H     2.230241   -1.749114    0.075548   -0.010561    0.007090   -0.000246
H    -0.049976   -3.130417    0.234289    0.240917    1.973417   -0.150536
H    -1.592141    1.183876   -0.048441    0.040625   -0.027762    0.001112
H     2.630876    0.734147   -0.122317   -0.002179   -0.000171    0.000065
12
* Frequency(35) 3601.1864
C     1.625635    0.316002   -0.065200    0.000841    0.002791   -0.000235
C     1.412543   -1.019680    0.041316    0.003127    0.000704   -0.000131
N     0.155362   -1.514809    0.110951   -0.018375   -0.147711    0.011294
C    -1.001505   -0.778660    0.084624   -0.000990    0.001250   -0.000069
N    -0.754004    0.577832   -0.023283   -0.003371    0.003631   -0.000191
C     0.489285    1.226601   -0.105145    0.000709   -0.001501    0.000095
O    -2.121257   -1.255903    0.147963   -0.000568   -0.000251    0.000032
O     0.544909    2.445196   -0.199407   -0.000097    0.000938   -0.000072
H     2.229417   -1.748561    0.075528   -0.010561    0.007090   -0.000246
H    -0.031177   -2.976423    0.222542    0.240917    1.973417   -0.150536
H    -1.588971    1.181710   -0.048354    0.040625   -0.027762    0.001112
H     2.630706    0.734134   -0.122312   -0.002179   -0.000171    0.000065
12
* Frequency(35) 3601.1864
C     1.625720    0.316284   -0.065223    0.000841    0.002791   -0.000235
C     1.412860   -1.019608    0.041303    0.003127    0.000704   -0.000131
N     0.153500   -1.529777    0.112096   -0.018375   -0.147711    0.011294
C    -1.001605   -0.778533    0.084617   -0.000990    0.001250   -0.000069
N    -0.754345    0.578200   -0.023303   -0.003371    0.003631   -0.000191
C     0.489357    1.226449   -0.105136    0.000709   -0.001501    0.000095
O    -2.121315   -1.255928    0.147967   -0.000568   -0.000251    0.000032
O     0.544899    2.445291   -0.199414   -0.000097    0.000938   -0.000072
H     2.228346   -1.747842    0.075503   -0.010561    0.007090   -0.000246
H    -0.006765   -2.776458    0.207289    0.240917    1.973417   -0.150536
H    -1.584854    1.178896   -0.048242    0.040625   -0.027762    0.001112
H     2.630485    0.734117   -0.122305   -0.002179   -0.000171    0.000065
12
* Frequency(35) 3601.1864
C     1.625816    0.316601   -0.065250    0.000841    0.002791   -0.000235
C     1.413215   -1.019528    0.041288    0.003127    0.000704   -0.000131
N     0.151412   -1.546563    0.113379   -0.018375   -0.147711    0.011294
C    -1.001718   -0.778391    0.084609   -0.000990    0.001250   -0.000069
N    -0.754728    0.578612   -0.023325   -0.003371    0.003631   -0.000191
C     0.489437    1.226278   -0.105125    0.000709   -0.001501    0.000095
O    -2.121379   -1.255957    0.147970   -0.000568   -0.000251    0.000032
O     0.544888    2.445398   -0.199422   -0.000097    0.000938   -0.000072
H     2.227146   -1.747036    0.075476   -0.010561    0.007090   -0.000246
H     0.020614   -2.552189    0.190181    0.240917    1.973417   -0.150536
H    -1.580237    1.175741   -0.048115    0.040625   -0.027762    0.001112
H     2.630238    0.734097   -0.122298   -0.002179   -0.000171    0.000065
