12
* (null), Energy   -1000.0000000
C     1.321514    0.518496   -0.072777    0.122010    0.013151    0.146365
C     1.109175   -0.817930    0.032797   -0.051729   -0.001565   -0.273447
N    -0.152373   -1.344381    0.103578   -0.024310    0.001542    0.031174
C    -1.303319   -0.575774    0.076278    0.042189   -0.019721    0.031045
N    -1.058010    0.780216   -0.032013   -0.098468   -0.034043   -0.010555
C     0.185580    1.426809   -0.112240   -0.018401    0.020902    0.031723
O    -2.424404   -1.053547    0.141169    0.038019    0.031937   -0.009172
O     0.240353    2.647240   -0.204710    0.010296    0.012278   -0.006414
H     1.922616   -1.545424    0.067591   -0.101015    0.039528    1.709101
H    -0.283402   -2.349496    0.186263   -0.011201   -0.014161   -0.151206
H    -1.883441    1.377385   -0.056304   -0.234558   -0.217059    0.026820
H     2.325711    0.936406   -0.129663    0.165137   -0.210579   -0.857511
12
* Frequency(20)  986.7315
C     1.335380    0.519991   -0.056143    0.122010    0.013151    0.146365
C     1.103297   -0.818108    0.001721   -0.051729   -0.001565   -0.273447
N    -0.155136   -1.344206    0.107121   -0.024310    0.001542    0.031174
C    -1.298525   -0.578015    0.079806    0.042189   -0.019721    0.031045
N    -1.069201    0.776348   -0.033212   -0.098468   -0.034043   -0.010555
C     0.183489    1.429184   -0.108634   -0.018401    0.020902    0.031723
O    -2.420084   -1.049917    0.140126    0.038019    0.031937   -0.009172
O     0.241523    2.648635   -0.205439    0.010296    0.012278   -0.006414
H     1.911136   -1.540932    0.261821   -0.101015    0.039528    1.709101
H    -0.284674   -2.351106    0.169080   -0.011201   -0.014161   -0.151206
H    -1.910097    1.352718   -0.053256   -0.234558   -0.217059    0.026820
H     2.344478    0.912475   -0.227115    0.165137   -0.210579   -0.857511
12
* Frequency(20)  986.7315
C     1.347743    0.521323   -0.041312    0.122010    0.013151    0.146365
C     1.098055   -0.818267   -0.025987   -0.051729   -0.001565   -0.273447
N    -0.157599   -1.344050    0.110280   -0.024310    0.001542    0.031174
C    -1.294250   -0.580013    0.082952    0.042189   -0.019721    0.031045
N    -1.079178    0.772898   -0.034282   -0.098468   -0.034043   -0.010555
C     0.181624    1.431302   -0.105420   -0.018401    0.020902    0.031723
O    -2.416231   -1.046681    0.139197    0.038019    0.031937   -0.009172
O     0.242567    2.649879   -0.206089    0.010296    0.012278   -0.006414
H     1.900901   -1.536926    0.435004   -0.101015    0.039528    1.709101
H    -0.285809   -2.352541    0.153758   -0.011201   -0.014161   -0.151206
H    -1.933865    1.330723   -0.050539   -0.234558   -0.217059    0.026820
H     2.361211    0.891137   -0.314006    0.165137   -0.210579   -0.857511
12
* Frequency(20)  986.7315
C     1.357264    0.522350   -0.029891    0.122010    0.013151    0.146365
C     1.094018   -0.818389   -0.047325   -0.051729   -0.001565   -0.273447
N    -0.159496   -1.343929    0.112713   -0.024310    0.001542    0.031174
C    -1.290957   -0.581552    0.085375    0.042189   -0.019721    0.031045
N    -1.086862    0.770242   -0.035105   -0.098468   -0.034043   -0.010555
C     0.180188    1.432933   -0.102945   -0.018401    0.020902    0.031723
O    -2.413265   -1.044189    0.138481    0.038019    0.031937   -0.009172
O     0.243370    2.650837   -0.206589    0.010296    0.012278   -0.006414
H     1.893018   -1.533842    0.568372   -0.101015    0.039528    1.709101
H    -0.286684   -2.353646    0.141959   -0.011201   -0.014161   -0.151206
H    -1.952168    1.313785   -0.048446   -0.234558   -0.217059    0.026820
H     2.374097    0.874705   -0.380921    0.165137   -0.210579   -0.857511
12
* Frequency(20)  986.7315
C     1.362911    0.522958   -0.023117    0.122010    0.013151    0.146365
C     1.091624   -0.818461   -0.059981   -0.051729   -0.001565   -0.273447
N    -0.160622   -1.343858    0.114156   -0.024310    0.001542    0.031174
C    -1.289005   -0.582465    0.086811    0.042189   -0.019721    0.031045
N    -1.091419    0.768666   -0.035594   -0.098468   -0.034043   -0.010555
C     0.179337    1.433900   -0.101476   -0.018401    0.020902    0.031723
O    -2.411505   -1.042711    0.138057    0.038019    0.031937   -0.009172
O     0.243847    2.651406   -0.206886    0.010296    0.012278   -0.006414
H     1.888343   -1.532012    0.647472   -0.101015    0.039528    1.709101
H    -0.287202   -2.354301    0.134961   -0.011201   -0.014161   -0.151206
H    -1.963024    1.303739   -0.047205   -0.234558   -0.217059    0.026820
H     2.381740    0.864959   -0.420608    0.165137   -0.210579   -0.857511
12
* Frequency(20)  986.7315
C     1.364071    0.523083   -0.021724    0.122010    0.013151    0.146365
C     1.091132   -0.818476   -0.062582   -0.051729   -0.001565   -0.273447
N    -0.160853   -1.343843    0.114452   -0.024310    0.001542    0.031174
C    -1.288603   -0.582653    0.087107    0.042189   -0.019721    0.031045
N    -1.092356    0.768342   -0.035694   -0.098468   -0.034043   -0.010555
C     0.179162    1.434099   -0.101175   -0.018401    0.020902    0.031723
O    -2.411143   -1.042407    0.137970    0.038019    0.031937   -0.009172
O     0.243945    2.651522   -0.206947    0.010296    0.012278   -0.006414
H     1.887382   -1.531636    0.663733   -0.101015    0.039528    1.709101
H    -0.287309   -2.354436    0.133522   -0.011201   -0.014161   -0.151206
H    -1.965256    1.301674   -0.046950   -0.234558   -0.217059    0.026820
H     2.383311    0.862955   -0.428767    0.165137   -0.210579   -0.857511
12
* Frequency(20)  986.7315
C     1.360621    0.522711   -0.025864    0.122010    0.013151    0.146365
C     1.092595   -0.818432   -0.054848   -0.051729   -0.001565   -0.273447
N    -0.160165   -1.343887    0.113570   -0.024310    0.001542    0.031174
C    -1.289797   -0.582095    0.086229    0.042189   -0.019721    0.031045
N    -1.089571    0.769305   -0.035396   -0.098468   -0.034043   -0.010555
C     0.179682    1.433508   -0.102072   -0.018401    0.020902    0.031723
O    -2.412219   -1.043310    0.138229    0.038019    0.031937   -0.009172
O     0.243653    2.651175   -0.206766    0.010296    0.012278   -0.006414
H     1.890239   -1.532754    0.615393   -0.101015    0.039528    1.709101
H    -0.286992   -2.354036    0.137799   -0.011201   -0.014161   -0.151206
H    -1.958621    1.307813   -0.047708   -0.234558   -0.217059    0.026820
H     2.378640    0.868911   -0.404513    0.165137   -0.210579   -0.857511
12
* Frequency(20)  986.7315
C     1.352932    0.521883   -0.035087    0.122010    0.013151    0.146365
C     1.095855   -0.818333   -0.037616   -0.051729   -0.001565   -0.273447
N    -0.158633   -1.343984    0.111606   -0.024310    0.001542    0.031174
C    -1.292455   -0.580852    0.084272    0.042189   -0.019721    0.031045
N    -1.083366    0.771450   -0.034731   -0.098468   -0.034043   -0.010555
C     0.180842    1.432191   -0.104071   -0.018401    0.020902    0.031723
O    -2.414614   -1.045323    0.138807    0.038019    0.031937   -0.009172
O     0.243005    2.650401   -0.206362    0.010296    0.012278   -0.006414
H     1.896605   -1.535245    0.507690   -0.101015    0.039528    1.709101
H    -0.286286   -2.353143    0.147327   -0.011201   -0.014161   -0.151206
H    -1.943840    1.321492   -0.049398   -0.234558   -0.217059    0.026820
H     2.368234    0.882181   -0.350475    0.165137   -0.210579   -0.857511
12
* Frequency(20)  986.7315
C     1.341838    0.520687   -0.048395    0.122010    0.013151    0.146365
C     1.100558   -0.818191   -0.012754   -0.051729   -0.001565   -0.273447
N    -0.156423   -1.344124    0.108771   -0.024310    0.001542    0.031174
C    -1.296291   -0.579059    0.081450    0.042189   -0.019721    0.031045
N    -1.074413    0.774545   -0.033771   -0.098468   -0.034043   -0.010555
C     0.182515    1.430290   -0.106955   -0.018401    0.020902    0.031723
O    -2.418071   -1.048227    0.139641    0.038019    0.031937   -0.009172
O     0.242069    2.649285   -0.205779    0.010296    0.012278   -0.006414
H     1.905789   -1.538839    0.352296   -0.101015    0.039528    1.709101
H    -0.285267   -2.351856    0.161075   -0.011201   -0.014161   -0.151206
H    -1.922514    1.341227   -0.051837   -0.234558   -0.217059    0.026820
H     2.353219    0.901328   -0.272509    0.165137   -0.210579   -0.857511
12
* Frequency(20)  986.7315
C     1.328543    0.519254   -0.064345    0.122010    0.013151    0.146365
C     1.106195   -0.818020    0.017044   -0.051729   -0.001565   -0.273447
N    -0.153774   -1.344292    0.105374   -0.024310    0.001542    0.031174
C    -1.300889   -0.576910    0.078067    0.042189   -0.019721    0.031045
N    -1.063683    0.778255   -0.032621   -0.098468   -0.034043   -0.010555
C     0.184520    1.428013   -0.110412   -0.018401    0.020902    0.031723
O    -2.422214   -1.051707    0.140640    0.038019    0.031937   -0.009172
O     0.240947    2.647947   -0.205080    0.010296    0.012278   -0.006414
H     1.916797   -1.543147    0.166049   -0.101015    0.039528    1.709101
H    -0.284047   -2.350312    0.177553   -0.011201   -0.014161   -0.151206
H    -1.896953    1.364881   -0.054759   -0.234558   -0.217059    0.026820
H     2.335224    0.924275   -0.179063    0.165137   -0.210579   -0.857511
12
* Frequency(20)  986.7315
C     1.314485    0.517739   -0.081209    0.122010    0.013151    0.146365
C     1.112155   -0.817840    0.048550   -0.051729   -0.001565   -0.273447
N    -0.150973   -1.344470    0.101782   -0.024310    0.001542    0.031174
C    -1.305750   -0.574638    0.074490    0.042189   -0.019721    0.031045
N    -1.052338    0.782177   -0.031405   -0.098468   -0.034043   -0.010555
C     0.186640    1.425604   -0.114067   -0.018401    0.020902    0.031723
O    -2.426595   -1.055386    0.141697    0.038019    0.031937   -0.009172
O     0.239760    2.646533   -0.204341    0.010296    0.012278   -0.006414
H     1.928435   -1.547701   -0.030867   -0.101015    0.039528    1.709101
H    -0.282756   -2.348681    0.194974   -0.011201   -0.014161   -0.151206
H    -1.869928    1.389889   -0.057849   -0.234558   -0.217059    0.026820
H     2.316198    0.948537   -0.080264    0.165137   -0.210579   -0.857511
12
* Frequency(20)  986.7315
C     1.301189    0.516306   -0.097158    0.122010    0.013151    0.146365
C     1.117792   -0.817669    0.078348   -0.051729   -0.001565   -0.273447
N    -0.148324   -1.344638    0.098385   -0.024310    0.001542    0.031174
C    -1.310347   -0.572489    0.071107    0.042189   -0.019721    0.031045
N    -1.041607    0.785887   -0.030254   -0.098468   -0.034043   -0.010555
C     0.188645    1.423327   -0.117524   -0.018401    0.020902    0.031723
O    -2.430738   -1.058867    0.142697    0.038019    0.031937   -0.009172
O     0.238638    2.645195   -0.203642    0.010296    0.012278   -0.006414
H     1.939443   -1.552009   -0.217114   -0.101015    0.039528    1.709101
H    -0.281536   -2.347137    0.211451   -0.011201   -0.014161   -0.151206
H    -1.844368    1.413543   -0.060772   -0.234558   -0.217059    0.026820
H     2.298202    0.971485    0.013182    0.165137   -0.210579   -0.857511
12
* Frequency(20)  986.7315
C     1.290096    0.515110   -0.110466    0.122010    0.013151    0.146365
C     1.122496   -0.817527    0.103211   -0.051729   -0.001565   -0.273447
N    -0.146114   -1.344778    0.095551   -0.024310    0.001542    0.031174
C    -1.314183   -0.570696    0.068284    0.042189   -0.019721    0.031045
N    -1.032654    0.788982   -0.029295   -0.098468   -0.034043   -0.010555
C     0.190318    1.421426   -0.120408   -0.018401    0.020902    0.031723
O    -2.434194   -1.061770    0.143531    0.038019    0.031937   -0.009172
O     0.237702    2.644078   -0.203059    0.010296    0.012278   -0.006414
H     1.948628   -1.555603   -0.372508   -0.101015    0.039528    1.709101
H    -0.280517   -2.345850    0.225199   -0.011201   -0.014161   -0.151206
H    -1.823041    1.433279   -0.063211   -0.234558   -0.217059    0.026820
H     2.283188    0.990631    0.091149    0.165137   -0.210579   -0.857511
12
* Frequency(20)  986.7315
C     1.282407    0.514281   -0.119690    0.122010    0.013151    0.146365
C     1.125756   -0.817428    0.120443   -0.051729   -0.001565   -0.273447
N    -0.144582   -1.344875    0.093586   -0.024310    0.001542    0.031174
C    -1.316841   -0.569453    0.066328    0.042189   -0.019721    0.031045
N    -1.026449    0.791128   -0.028629   -0.098468   -0.034043   -0.010555
C     0.191478    1.420109   -0.122407   -0.018401    0.020902    0.031723
O    -2.436590   -1.063783    0.144108    0.038019    0.031937   -0.009172
O     0.237053    2.643305   -0.202654    0.010296    0.012278   -0.006414
H     1.954994   -1.558094   -0.480211   -0.101015    0.039528    1.709101
H    -0.279811   -2.344957    0.234728   -0.011201   -0.014161   -0.151206
H    -1.808260    1.446957   -0.064901   -0.234558   -0.217059    0.026820
H     2.272781    1.003901    0.145187    0.165137   -0.210579   -0.857511
12
* Frequency(20)  986.7315
C     1.278956    0.513909   -0.123829    0.122010    0.013151    0.146365
C     1.127219   -0.817384    0.128177   -0.051729   -0.001565   -0.273447
N    -0.143894   -1.344919    0.092705   -0.024310    0.001542    0.031174
C    -1.318035   -0.568895    0.065450    0.042189   -0.019721    0.031045
N    -1.023664    0.792091   -0.028331   -0.098468   -0.034043   -0.010555
C     0.191998    1.419518   -0.123305   -0.018401    0.020902    0.031723
O    -2.437665   -1.064686    0.144368    0.038019    0.031937   -0.009172
O     0.236762    2.642957   -0.202473    0.010296    0.012278   -0.006414
H     1.957851   -1.559212   -0.528551   -0.101015    0.039528    1.709101
H    -0.279495   -2.344557    0.239005   -0.011201   -0.014161   -0.151206
H    -1.801626    1.453096   -0.065659   -0.234558   -0.217059    0.026820
H     2.268110    1.009857    0.169440    0.165137   -0.210579   -0.857511
12
* Frequency(20)  986.7315
C     1.280117    0.514034   -0.122437    0.122010    0.013151    0.146365
C     1.126727   -0.817399    0.125575   -0.051729   -0.001565   -0.273447
N    -0.144125   -1.344904    0.093001   -0.024310    0.001542    0.031174
C    -1.317633   -0.569083    0.065745    0.042189   -0.019721    0.031045
N    -1.024601    0.791767   -0.028431   -0.098468   -0.034043   -0.010555
C     0.191823    1.419717   -0.123003   -0.018401    0.020902    0.031723
O    -2.437304   -1.064382    0.144281    0.038019    0.031937   -0.009172
O     0.236860    2.643074   -0.202534    0.010296    0.012278   -0.006414
H     1.956890   -1.558836   -0.512290   -0.101015    0.039528    1.709101
H    -0.279601   -2.344692    0.237566   -0.011201   -0.014161   -0.151206
H    -1.803857    1.451031   -0.065404   -0.234558   -0.217059    0.026820
H     2.269682    1.007854    0.161282    0.165137   -0.210579   -0.857511
12
* Frequency(20)  986.7315
C     1.285764    0.514643   -0.115663    0.122010    0.013151    0.146365
C     1.124332   -0.817471    0.112919   -0.051729   -0.001565   -0.273447
N    -0.145250   -1.344833    0.094444   -0.024310    0.001542    0.031174
C    -1.315681   -0.569996    0.067182    0.042189   -0.019721    0.031045
N    -1.029158    0.790191   -0.028920   -0.098468   -0.034043   -0.010555
C     0.190971    1.420684   -0.121535   -0.018401    0.020902    0.031723
O    -2.435544   -1.062904    0.143856    0.038019    0.031937   -0.009172
O     0.237337    2.643642   -0.202831    0.010296    0.012278   -0.006414
H     1.952214   -1.557006   -0.433190   -0.101015    0.039528    1.709101
H    -0.280119   -2.345347    0.230568   -0.011201   -0.014161   -0.151206
H    -1.814713    1.440985   -0.064163   -0.234558   -0.217059    0.026820
H     2.277324    0.998108    0.121594    0.165137   -0.210579   -0.857511
12
* Frequency(20)  986.7315
C     1.295285    0.515669   -0.104241    0.122010    0.013151    0.146365
C     1.120296   -0.817594    0.091581   -0.051729   -0.001565   -0.273447
N    -0.147147   -1.344713    0.096877   -0.024310    0.001542    0.031174
C    -1.312389   -0.571535    0.069604    0.042189   -0.019721    0.031045
N    -1.036842    0.787535   -0.029744   -0.098468   -0.034043   -0.010555
C     0.189536    1.422315   -0.119059   -0.018401    0.020902    0.031723
O    -2.432577   -1.060412    0.143140    0.038019    0.031937   -0.009172
O     0.238140    2.644600   -0.203331    0.010296    0.012278   -0.006414
H     1.944332   -1.553922   -0.299822   -0.101015    0.039528    1.709101
H    -0.280994   -2.346452    0.218769   -0.011201   -0.014161   -0.151206
H    -1.833017    1.424047   -0.062070   -0.234558   -0.217059    0.026820
H     2.290211    0.981675    0.054680    0.165137   -0.210579   -0.857511
12
* Frequency(20)  986.7315
C     1.307648    0.517002   -0.089410    0.122010    0.013151    0.146365
C     1.115054   -0.817752    0.063873   -0.051729   -0.001565   -0.273447
N    -0.149611   -1.344556    0.100036   -0.024310    0.001542    0.031174
C    -1.308114   -0.573533    0.072750    0.042189   -0.019721    0.031045
N    -1.046820    0.784085   -0.030813   -0.098468   -0.034043   -0.010555
C     0.187671    1.424433   -0.115845   -0.018401    0.020902    0.031723
O    -2.428725   -1.057176    0.142211    0.038019    0.031937   -0.009172
O     0.239183    2.645845   -0.203981    0.010296    0.012278   -0.006414
H     1.934096   -1.549916   -0.126640   -0.101015    0.039528    1.709101
H    -0.282129   -2.347887    0.203447   -0.011201   -0.014161   -0.151206
H    -1.856784    1.402053   -0.059352   -0.234558   -0.217059    0.026820
H     2.306944    0.960337   -0.032212    0.165137   -0.210579   -0.857511
12
* Frequency(20)  986.7315
C     1.321514    0.518496   -0.072777    0.122010    0.013151    0.146365
C     1.109175   -0.817930    0.032797   -0.051729   -0.001565   -0.273447
N    -0.152373   -1.344381    0.103578   -0.024310    0.001542    0.031174
C    -1.303319   -0.575774    0.076278    0.042189   -0.019721    0.031045
N    -1.058010    0.780216   -0.032013   -0.098468   -0.034043   -0.010555
C     0.185580    1.426809   -0.112240   -0.018401    0.020902    0.031723
O    -2.424404   -1.053547    0.141169    0.038019    0.031937   -0.009172
O     0.240353    2.647240   -0.204710    0.010296    0.012278   -0.006414
H     1.922616   -1.545424    0.067591   -0.101015    0.039528    1.709101
H    -0.283402   -2.349496    0.186263   -0.011201   -0.014161   -0.151206
H    -1.883441    1.377385   -0.056304   -0.234558   -0.217059    0.026820
H     2.325711    0.936406   -0.129663    0.165137   -0.210579   -0.857511
