12
* (null), Energy   -1000.0000000
C     1.321514    0.518496   -0.072777   -0.009994   -0.028464   -0.379852
C     1.109175   -0.817930    0.032797   -0.003365   -0.008477   -0.112481
N    -0.152373   -1.344381    0.103578    0.001481    0.005420    0.068590
C    -1.303319   -0.575774    0.076278   -0.000959   -0.003551   -0.051329
N    -1.058010    0.780216   -0.032013   -0.002849   -0.008904   -0.116124
C     0.185580    1.426809   -0.112240    0.014709    0.043538    0.585850
O    -2.424404   -1.053547    0.141169    0.001096    0.001431    0.016820
O     0.240353    2.647240   -0.204710   -0.004216   -0.012726   -0.166879
H     1.922616   -1.545424    0.067591    0.020939    0.064081    0.840051
H    -0.283402   -2.349496    0.186263   -0.002958   -0.009497   -0.121162
H    -1.883441    1.377385   -0.056304    0.004755    0.013716    0.186489
H     2.325711    0.936406   -0.129663    0.041143    0.123093    1.634204
12
* Frequency(18)  818.3876
C     1.320378    0.515261   -0.115945   -0.009994   -0.028464   -0.379852
C     1.108793   -0.818893    0.020014   -0.003365   -0.008477   -0.112481
N    -0.152205   -1.343765    0.111373    0.001481    0.005420    0.068590
C    -1.303428   -0.576178    0.070445   -0.000959   -0.003551   -0.051329
N    -1.058334    0.779204   -0.045210   -0.002849   -0.008904   -0.116124
C     0.187251    1.431756   -0.045661    0.014709    0.043538    0.585850
O    -2.424280   -1.053384    0.143080    0.001096    0.001431    0.016820
O     0.239874    2.645794   -0.223675   -0.004216   -0.012726   -0.166879
H     1.924996   -1.538141    0.163058    0.020939    0.064081    0.840051
H    -0.283738   -2.350576    0.172494   -0.002958   -0.009497   -0.121162
H    -1.882900    1.378944   -0.035111    0.004755    0.013716    0.186489
H     2.330387    0.950395    0.056056    0.041143    0.123093    1.634204
12
* Frequency(18)  818.3876
C     1.319365    0.512377   -0.154435   -0.009994   -0.028464   -0.379852
C     1.108452   -0.819752    0.008617   -0.003365   -0.008477   -0.112481
N    -0.152055   -1.343216    0.118323    0.001481    0.005420    0.068590
C    -1.303525   -0.576537    0.065244   -0.000959   -0.003551   -0.051329
N    -1.058623    0.778302   -0.056976   -0.002849   -0.008904   -0.116124
C     0.188742    1.436168    0.013703    0.014709    0.043538    0.585850
O    -2.424169   -1.053239    0.144785    0.001096    0.001431    0.016820
O     0.239447    2.644504   -0.240585   -0.004216   -0.012726   -0.166879
H     1.927118   -1.531648    0.248180    0.020939    0.064081    0.840051
H    -0.284037   -2.351538    0.160216   -0.002958   -0.009497   -0.121162
H    -1.882419    1.380334   -0.016214    0.004755    0.013716    0.186489
H     2.334556    0.962868    0.221649    0.041143    0.123093    1.634204
12
* Frequency(18)  818.3876
C     1.318585    0.510156   -0.184077   -0.009994   -0.028464   -0.379852
C     1.108189   -0.820414   -0.000161   -0.003365   -0.008477   -0.112481
N    -0.151940   -1.342793    0.123676    0.001481    0.005420    0.068590
C    -1.303600   -0.576814    0.061239   -0.000959   -0.003551   -0.051329
N    -1.058845    0.777607   -0.066038   -0.002849   -0.008904   -0.116124
C     0.189890    1.439566    0.059419    0.014709    0.043538    0.585850
O    -2.424083   -1.053128    0.146097    0.001096    0.001431    0.016820
O     0.239118    2.643511   -0.253607   -0.004216   -0.012726   -0.166879
H     1.928751   -1.526648    0.313733    0.020939    0.064081    0.840051
H    -0.284268   -2.352279    0.150762   -0.002958   -0.009497   -0.121162
H    -1.882048    1.381404   -0.001662    0.004755    0.013716    0.186489
H     2.337766    0.972474    0.349172    0.041143    0.123093    1.634204
12
* Frequency(18)  818.3876
C     1.318123    0.508839   -0.201657   -0.009994   -0.028464   -0.379852
C     1.108034   -0.820806   -0.005367   -0.003365   -0.008477   -0.112481
N    -0.151871   -1.342542    0.126850    0.001481    0.005420    0.068590
C    -1.303644   -0.576979    0.058863   -0.000959   -0.003551   -0.051329
N    -1.058977    0.777195   -0.071412   -0.002849   -0.008904   -0.116124
C     0.190571    1.441581    0.086533    0.014709    0.043538    0.585850
O    -2.424033   -1.053061    0.146876    0.001096    0.001431    0.016820
O     0.238923    2.642922   -0.261331   -0.004216   -0.012726   -0.166879
H     1.929721   -1.523682    0.352612    0.020939    0.064081    0.840051
H    -0.284405   -2.352719    0.145154   -0.002958   -0.009497   -0.121162
H    -1.881828    1.382039    0.006969    0.004755    0.013716    0.186489
H     2.339670    0.978171    0.424806    0.041143    0.123093    1.634204
12
* Frequency(18)  818.3876
C     1.318028    0.508568   -0.205271   -0.009994   -0.028464   -0.379852
C     1.108001   -0.820887   -0.006437   -0.003365   -0.008477   -0.112481
N    -0.151857   -1.342491    0.127503    0.001481    0.005420    0.068590
C    -1.303654   -0.577012    0.058375   -0.000959   -0.003551   -0.051329
N    -1.059004    0.777110   -0.072517   -0.002849   -0.008904   -0.116124
C     0.190710    1.441995    0.092107    0.014709    0.043538    0.585850
O    -2.424022   -1.053048    0.147036    0.001096    0.001431    0.016820
O     0.238883    2.642801   -0.262918   -0.004216   -0.012726   -0.166879
H     1.929920   -1.523072    0.360604    0.020939    0.064081    0.840051
H    -0.284433   -2.352809    0.144001   -0.002958   -0.009497   -0.121162
H    -1.881782    1.382169    0.008744    0.004755    0.013716    0.186489
H     2.340062    0.979342    0.440354    0.041143    0.123093    1.634204
12
* Frequency(18)  818.3876
C     1.318310    0.509373   -0.194527   -0.009994   -0.028464   -0.379852
C     1.108097   -0.820647   -0.003255   -0.003365   -0.008477   -0.112481
N    -0.151899   -1.342644    0.125563    0.001481    0.005420    0.068590
C    -1.303626   -0.576912    0.059826   -0.000959   -0.003551   -0.051329
N    -1.058923    0.777362   -0.069233   -0.002849   -0.008904   -0.116124
C     0.190294    1.440763    0.075537    0.014709    0.043538    0.585850
O    -2.424053   -1.053088    0.146560    0.001096    0.001431    0.016820
O     0.239002    2.643161   -0.258198   -0.004216   -0.012726   -0.166879
H     1.929328   -1.524885    0.336845    0.020939    0.064081    0.840051
H    -0.284350   -2.352541    0.147428   -0.002958   -0.009497   -0.121162
H    -1.881917    1.381781    0.003469    0.004755    0.013716    0.186489
H     2.338898    0.975860    0.394133    0.041143    0.123093    1.634204
12
* Frequency(18)  818.3876
C     1.318940    0.511167   -0.170590   -0.009994   -0.028464   -0.379852
C     1.108309   -0.820113    0.003833   -0.003365   -0.008477   -0.112481
N    -0.151992   -1.342985    0.121240    0.001481    0.005420    0.068590
C    -1.303566   -0.576688    0.063061   -0.000959   -0.003551   -0.051329
N    -1.058744    0.777923   -0.061915   -0.002849   -0.008904   -0.116124
C     0.189368    1.438020    0.038619    0.014709    0.043538    0.585850
O    -2.424122   -1.053178    0.145500    0.001096    0.001431    0.016820
O     0.239268    2.643963   -0.247682   -0.004216   -0.012726   -0.166879
H     1.928008   -1.528923    0.283907    0.020939    0.064081    0.840051
H    -0.284163   -2.351942    0.155064   -0.002958   -0.009497   -0.121162
H    -1.882216    1.380917   -0.008283    0.004755    0.013716    0.186489
H     2.336305    0.968103    0.291150    0.041143    0.123093    1.634204
12
* Frequency(18)  818.3876
C     1.319849    0.513755   -0.136053   -0.009994   -0.028464   -0.379852
C     1.108615   -0.819342    0.014060   -0.003365   -0.008477   -0.112481
N    -0.152127   -1.343478    0.115004    0.001481    0.005420    0.068590
C    -1.303479   -0.576365    0.067728   -0.000959   -0.003551   -0.051329
N    -1.058485    0.778733   -0.051357   -0.002849   -0.008904   -0.116124
C     0.188030    1.434061   -0.014648    0.014709    0.043538    0.585850
O    -2.424222   -1.053308    0.143971    0.001096    0.001431    0.016820
O     0.239651    2.645120   -0.232509   -0.004216   -0.012726   -0.166879
H     1.926104   -1.534749    0.207528    0.020939    0.064081    0.840051
H    -0.283894   -2.351079    0.166080   -0.002958   -0.009497   -0.121162
H    -1.882649    1.379670   -0.025239    0.004755    0.013716    0.186489
H     2.332565    0.956911    0.142565    0.041143    0.123093    1.634204
12
* Frequency(18)  818.3876
C     1.320938    0.516857   -0.094659   -0.009994   -0.028464   -0.379852
C     1.108981   -0.818418    0.026317   -0.003365   -0.008477   -0.112481
N    -0.152288   -1.344069    0.107530    0.001481    0.005420    0.068590
C    -1.303374   -0.575979    0.073321   -0.000959   -0.003551   -0.051329
N    -1.058174    0.779703   -0.038702   -0.002849   -0.008904   -0.116124
C     0.186427    1.429317   -0.078490    0.014709    0.043538    0.585850
O    -2.424341   -1.053464    0.142138    0.001096    0.001431    0.016820
O     0.240111    2.646507   -0.214324   -0.004216   -0.012726   -0.166879
H     1.923822   -1.541732    0.115985    0.020939    0.064081    0.840051
H    -0.283572   -2.350044    0.179283   -0.002958   -0.009497   -0.121162
H    -1.883167    1.378175   -0.045561    0.004755    0.013716    0.186489
H     2.328081    0.943497   -0.035520    0.041143    0.123093    1.634204
12
* Frequency(18)  818.3876
C     1.322090    0.520136   -0.050894   -0.009994   -0.028464   -0.379852
C     1.109369   -0.817442    0.039277   -0.003365   -0.008477   -0.112481
N    -0.152459   -1.344693    0.099627    0.001481    0.005420    0.068590
C    -1.303264   -0.575569    0.079235   -0.000959   -0.003551   -0.051329
N    -1.057846    0.780729   -0.025323   -0.002849   -0.008904   -0.116124
C     0.184732    1.424300   -0.145989    0.014709    0.043538    0.585850
O    -2.424468   -1.053629    0.140200    0.001096    0.001431    0.016820
O     0.240596    2.647973   -0.195097   -0.004216   -0.012726   -0.166879
H     1.921410   -1.549116    0.019197    0.020939    0.064081    0.840051
H    -0.283231   -2.348949    0.193243   -0.002958   -0.009497   -0.121162
H    -1.883715    1.376595   -0.067048    0.004755    0.013716    0.186489
H     2.323341    0.929315   -0.223807    0.041143    0.123093    1.634204
12
* Frequency(18)  818.3876
C     1.323179    0.523238   -0.009500   -0.009994   -0.028464   -0.379852
C     1.109736   -0.816518    0.051534   -0.003365   -0.008477   -0.112481
N    -0.152620   -1.345284    0.092153    0.001481    0.005420    0.068590
C    -1.303159   -0.575183    0.084829   -0.000959   -0.003551   -0.051329
N    -1.057536    0.781700   -0.012668   -0.002849   -0.008904   -0.116124
C     0.183130    1.419556   -0.209831    0.014709    0.043538    0.585850
O    -2.424587   -1.053785    0.138367    0.001096    0.001431    0.016820
O     0.241056    2.649360   -0.176911   -0.004216   -0.012726   -0.166879
H     1.919128   -1.556099   -0.072346    0.020939    0.064081    0.840051
H    -0.282909   -2.347914    0.206447   -0.002958   -0.009497   -0.121162
H    -1.884233    1.375100   -0.087370    0.004755    0.013716    0.186489
H     2.318857    0.915901   -0.401891    0.041143    0.123093    1.634204
12
* Frequency(18)  818.3876
C     1.324087    0.525826    0.025036   -0.009994   -0.028464   -0.379852
C     1.110042   -0.815747    0.061761   -0.003365   -0.008477   -0.112481
N    -0.152755   -1.345777    0.085916    0.001481    0.005420    0.068590
C    -1.303072   -0.574860    0.089496   -0.000959   -0.003551   -0.051329
N    -1.057277    0.782509   -0.002110   -0.002849   -0.008904   -0.116124
C     0.181792    1.415597   -0.263098    0.014709    0.043538    0.585850
O    -2.424687   -1.053915    0.136838    0.001096    0.001431    0.016820
O     0.241439    2.650517   -0.161738   -0.004216   -0.012726   -0.166879
H     1.917224   -1.561925   -0.148725    0.020939    0.064081    0.840051
H    -0.282640   -2.347051    0.217463   -0.002958   -0.009497   -0.121162
H    -1.884665    1.373853   -0.104326    0.004755    0.013716    0.186489
H     2.315116    0.904709   -0.550476    0.041143    0.123093    1.634204
12
* Frequency(18)  818.3876
C     1.324717    0.527620    0.048974   -0.009994   -0.028464   -0.379852
C     1.110254   -0.815213    0.068850   -0.003365   -0.008477   -0.112481
N    -0.152848   -1.346119    0.081594    0.001481    0.005420    0.068590
C    -1.303012   -0.574636    0.092730   -0.000959   -0.003551   -0.051329
N    -1.057097    0.783070    0.005208   -0.002849   -0.008904   -0.116124
C     0.180865    1.412854   -0.300016    0.014709    0.043538    0.585850
O    -2.424756   -1.054005    0.135778    0.001096    0.001431    0.016820
O     0.241705    2.651319   -0.151222   -0.004216   -0.012726   -0.166879
H     1.915905   -1.565963   -0.201663    0.020939    0.064081    0.840051
H    -0.282453   -2.346452    0.225098   -0.002958   -0.009497   -0.121162
H    -1.884965    1.372989   -0.116078    0.004755    0.013716    0.186489
H     2.312523    0.896952   -0.653459    0.041143    0.123093    1.634204
12
* Frequency(18)  818.3876
C     1.325000    0.528425    0.059717   -0.009994   -0.028464   -0.379852
C     1.110349   -0.814973    0.072031   -0.003365   -0.008477   -0.112481
N    -0.152890   -1.346272    0.079654    0.001481    0.005420    0.068590
C    -1.302985   -0.574536    0.094182   -0.000959   -0.003551   -0.051329
N    -1.057017    0.783322    0.008492   -0.002849   -0.008904   -0.116124
C     0.180449    1.411622   -0.316587    0.014709    0.043538    0.585850
O    -2.424787   -1.054046    0.135302    0.001096    0.001431    0.016820
O     0.241824    2.651679   -0.146502   -0.004216   -0.012726   -0.166879
H     1.915313   -1.567776   -0.225422    0.020939    0.064081    0.840051
H    -0.282370   -2.346184    0.228525   -0.002958   -0.009497   -0.121162
H    -1.885099    1.372601   -0.121353    0.004755    0.013716    0.186489
H     2.311360    0.893471   -0.699681    0.041143    0.123093    1.634204
12
* Frequency(18)  818.3876
C     1.324905    0.528154    0.056103   -0.009994   -0.028464   -0.379852
C     1.110317   -0.815054    0.070961   -0.003365   -0.008477   -0.112481
N    -0.152876   -1.346220    0.080307    0.001481    0.005420    0.068590
C    -1.302994   -0.574569    0.093694   -0.000959   -0.003551   -0.051329
N    -1.057044    0.783238    0.007387   -0.002849   -0.008904   -0.116124
C     0.180589    1.412036   -0.311013    0.014709    0.043538    0.585850
O    -2.424776   -1.054032    0.135462    0.001096    0.001431    0.016820
O     0.241784    2.651558   -0.148090   -0.004216   -0.012726   -0.166879
H     1.915512   -1.567166   -0.217430    0.020939    0.064081    0.840051
H    -0.282398   -2.346274    0.227372   -0.002958   -0.009497   -0.121162
H    -1.885054    1.372732   -0.119578    0.004755    0.013716    0.186489
H     2.311751    0.894642   -0.684132    0.041143    0.123093    1.634204
12
* Frequency(18)  818.3876
C     1.324442    0.526837    0.038523   -0.009994   -0.028464   -0.379852
C     1.110161   -0.815446    0.065755   -0.003365   -0.008477   -0.112481
N    -0.152807   -1.345969    0.083481    0.001481    0.005420    0.068590
C    -1.303038   -0.574734    0.091318   -0.000959   -0.003551   -0.051329
N    -1.057176    0.782825    0.002013   -0.002849   -0.008904   -0.116124
C     0.181270    1.414051   -0.283898    0.014709    0.043538    0.585850
O    -2.424725   -1.053966    0.136240    0.001096    0.001431    0.016820
O     0.241589    2.650969   -0.155813   -0.004216   -0.012726   -0.166879
H     1.916481   -1.564200   -0.178551    0.020939    0.064081    0.840051
H    -0.282535   -2.346714    0.221765   -0.002958   -0.009497   -0.121162
H    -1.884834    1.373366   -0.110947    0.004755    0.013716    0.186489
H     2.313655    0.900339   -0.608498    0.041143    0.123093    1.634204
12
* Frequency(18)  818.3876
C     1.323662    0.524615    0.008882   -0.009994   -0.028464   -0.379852
C     1.109899   -0.816108    0.056978   -0.003365   -0.008477   -0.112481
N    -0.152692   -1.345546    0.088833    0.001481    0.005420    0.068590
C    -1.303113   -0.575011    0.087313   -0.000959   -0.003551   -0.051329
N    -1.057398    0.782131   -0.007049   -0.002849   -0.008904   -0.116124
C     0.182418    1.417449   -0.238182    0.014709    0.043538    0.585850
O    -2.424640   -1.053854    0.137553    0.001096    0.001431    0.016820
O     0.241260    2.649976   -0.168835   -0.004216   -0.012726   -0.166879
H     1.918115   -1.559200   -0.112998    0.020939    0.064081    0.840051
H    -0.282766   -2.347455    0.212310   -0.002958   -0.009497   -0.121162
H    -1.884463    1.374437   -0.096395    0.004755    0.013716    0.186489
H     2.316866    0.909944   -0.480975    0.041143    0.123093    1.634204
12
* Frequency(18)  818.3876
C     1.322650    0.521731   -0.029609   -0.009994   -0.028464   -0.379852
C     1.109558   -0.816967    0.045580   -0.003365   -0.008477   -0.112481
N    -0.152542   -1.344997    0.095783    0.001481    0.005420    0.068590
C    -1.303210   -0.575370    0.082112   -0.000959   -0.003551   -0.051329
N    -1.057686    0.781228   -0.018816   -0.002849   -0.008904   -0.116124
C     0.183908    1.421861   -0.178818    0.014709    0.043538    0.585850
O    -2.424529   -1.053709    0.139257    0.001096    0.001431    0.016820
O     0.240833    2.648686   -0.185745   -0.004216   -0.012726   -0.166879
H     1.920237   -1.552706   -0.027876    0.020939    0.064081    0.840051
H    -0.283065   -2.348417    0.200033   -0.002958   -0.009497   -0.121162
H    -1.883981    1.375826   -0.077498    0.004755    0.013716    0.186489
H     2.321035    0.922417   -0.315382    0.041143    0.123093    1.634204
12
* Frequency(18)  818.3876
C     1.321514    0.518496   -0.072777   -0.009994   -0.028464   -0.379852
C     1.109175   -0.817930    0.032797   -0.003365   -0.008477   -0.112481
N    -0.152373   -1.344381    0.103578    0.001481    0.005420    0.068590
C    -1.303319   -0.575774    0.076278   -0.000959   -0.003551   -0.051329
N    -1.058010    0.780216   -0.032013   -0.002849   -0.008904   -0.116124
C     0.185580    1.426809   -0.112240    0.014709    0.043538    0.585850
O    -2.424404   -1.053547    0.141169    0.001096    0.001431    0.016820
O     0.240353    2.647240   -0.204710   -0.004216   -0.012726   -0.166879
H     1.922616   -1.545424    0.067591    0.020939    0.064081    0.840051
H    -0.283402   -2.349496    0.186263   -0.002958   -0.009497   -0.121162
H    -1.883441    1.377385   -0.056304    0.004755    0.013716    0.186489
H     2.325711    0.936406   -0.129663    0.041143    0.123093    1.634204
