12
* (null), Energy   -1000.0000000
C     1.625816    0.316601   -0.065250    0.202892   -0.134074    0.005076
C     1.413215   -1.019528    0.041288   -0.403402   -0.036067    0.012936
N     0.151412   -1.546563    0.113379    0.526472    0.015709   -0.014789
C    -1.001718   -0.778391    0.084609    0.062049    0.059663   -0.006172
N    -0.754728    0.578612   -0.023325    0.129067    0.072184   -0.008872
C     0.489437    1.226278   -0.105125   -0.235504   -0.043330    0.009455
O    -2.121379   -1.255957    0.147970   -0.194883   -0.063344    0.009546
O     0.544888    2.445398   -0.199422    0.020762    0.040906   -0.003654
H     2.227146   -1.747036    0.075476   -0.062096    0.409570   -0.028379
H     0.020614   -2.552189    0.190181   -1.663409    0.296813    0.023728
H    -1.580237    1.175741   -0.048115   -0.107462   -0.249694    0.023322
H     2.630238    0.734097   -0.122298   -0.056577    0.510834   -0.037153
12
* Frequency(28) 1512.6164
C     1.648873    0.301365   -0.064673    0.202892   -0.134074    0.005076
C     1.367370   -1.023627    0.042758   -0.403402   -0.036067    0.012936
N     0.211243   -1.544778    0.111698    0.526472    0.015709   -0.014789
C    -0.994666   -0.771610    0.083908    0.062049    0.059663   -0.006172
N    -0.740061    0.586815   -0.024333    0.129067    0.072184   -0.008872
C     0.462673    1.221354   -0.104050   -0.235504   -0.043330    0.009455
O    -2.143527   -1.263155    0.149055   -0.194883   -0.063344    0.009546
O     0.547247    2.450047   -0.199837    0.020762    0.040906   -0.003654
H     2.220089   -1.700491    0.072250   -0.062096    0.409570   -0.028379
H    -0.168423   -2.518458    0.192877   -1.663409    0.296813    0.023728
H    -1.592450    1.147365   -0.045465   -0.107462   -0.249694    0.023322
H     2.623808    0.792151   -0.126520   -0.056577    0.510834   -0.037153
12
* Frequency(28) 1512.6164
C     1.669432    0.287779   -0.064159    0.202892   -0.134074    0.005076
C     1.326494   -1.027282    0.044069   -0.403402   -0.036067    0.012936
N     0.264590   -1.543186    0.110200    0.526472    0.015709   -0.014789
C    -0.988379   -0.765565    0.083283    0.062049    0.059663   -0.006172
N    -0.726982    0.594130   -0.025232    0.129067    0.072184   -0.008872
C     0.438810    1.216964   -0.103092   -0.235504   -0.043330    0.009455
O    -2.163274   -1.269574    0.150022   -0.194883   -0.063344    0.009546
O     0.549351    2.454192   -0.200207    0.020762    0.040906   -0.003654
H     2.213797   -1.658989    0.069375   -0.062096    0.409570   -0.028379
H    -0.336976   -2.488382    0.195282   -1.663409    0.296813    0.023728
H    -1.603339    1.122064   -0.043102   -0.107462   -0.249694    0.023322
H     2.618075    0.843913   -0.130284   -0.056577    0.510834   -0.037153
12
* Frequency(28) 1512.6164
C     1.685264    0.277317   -0.063763    0.202892   -0.134074    0.005076
C     1.295015   -1.030096    0.045078   -0.403402   -0.036067    0.012936
N     0.305673   -1.541960    0.109046    0.526472    0.015709   -0.014789
C    -0.983537   -0.760909    0.082801    0.062049    0.059663   -0.006172
N    -0.716911    0.599763   -0.025924    0.129067    0.072184   -0.008872
C     0.420433    1.213582   -0.102354   -0.235504   -0.043330    0.009455
O    -2.178482   -1.274517    0.150767   -0.194883   -0.063344    0.009546
O     0.550971    2.457384   -0.200493    0.020762    0.040906   -0.003654
H     2.208952   -1.627029    0.067160   -0.062096    0.409570   -0.028379
H    -0.466778   -2.465220    0.197133   -1.663409    0.296813    0.023728
H    -1.611725    1.102579   -0.041282   -0.107462   -0.249694    0.023322
H     2.613660    0.883776   -0.133184   -0.056577    0.510834   -0.037153
12
* Frequency(28) 1512.6164
C     1.694655    0.271111   -0.063528    0.202892   -0.134074    0.005076
C     1.276345   -1.031765    0.045677   -0.403402   -0.036067    0.012936
N     0.330039   -1.541233    0.108361    0.526472    0.015709   -0.014789
C    -0.980665   -0.758148    0.082515    0.062049    0.059663   -0.006172
N    -0.710937    0.603103   -0.026335    0.129067    0.072184   -0.008872
C     0.409533    1.211577   -0.101917   -0.235504   -0.043330    0.009455
O    -2.187501   -1.277449    0.151209   -0.194883   -0.063344    0.009546
O     0.551932    2.459277   -0.200662    0.020762    0.040906   -0.003654
H     2.206078   -1.608073    0.065847   -0.062096    0.409570   -0.028379
H    -0.543764   -2.451483    0.198231   -1.663409    0.296813    0.023728
H    -1.616698    1.091023   -0.040202   -0.107462   -0.249694    0.023322
H     2.611042    0.907418   -0.134903   -0.056577    0.510834   -0.037153
12
* Frequency(28) 1512.6164
C     1.696585    0.269836   -0.063480    0.202892   -0.134074    0.005076
C     1.272507   -1.032109    0.045800   -0.403402   -0.036067    0.012936
N     0.335048   -1.541084    0.108221    0.526472    0.015709   -0.014789
C    -0.980075   -0.757580    0.082457    0.062049    0.059663   -0.006172
N    -0.709709    0.603790   -0.026419    0.129067    0.072184   -0.008872
C     0.407292    1.211165   -0.101827   -0.235504   -0.043330    0.009455
O    -2.189355   -1.278051    0.151300   -0.194883   -0.063344    0.009546
O     0.552130    2.459666   -0.200697    0.020762    0.040906   -0.003654
H     2.205487   -1.604176    0.065577   -0.062096    0.409570   -0.028379
H    -0.559590   -2.448659    0.198457   -1.663409    0.296813    0.023728
H    -1.617721    1.088647   -0.039980   -0.107462   -0.249694    0.023322
H     2.610503    0.912278   -0.135257   -0.056577    0.510834   -0.037153
12
* Frequency(28) 1512.6164
C     1.690846    0.273628   -0.063623    0.202892   -0.134074    0.005076
C     1.283916   -1.031088    0.045434   -0.403402   -0.036067    0.012936
N     0.320157   -1.541528    0.108639    0.526472    0.015709   -0.014789
C    -0.981830   -0.759268    0.082631    0.062049    0.059663   -0.006172
N    -0.713360    0.601749   -0.026168    0.129067    0.072184   -0.008872
C     0.413953    1.212390   -0.102094   -0.235504   -0.043330    0.009455
O    -2.183843   -1.276260    0.151030   -0.194883   -0.063344    0.009546
O     0.551542    2.458509   -0.200593    0.020762    0.040906   -0.003654
H     2.207243   -1.615761    0.066379   -0.062096    0.409570   -0.028379
H    -0.512543   -2.457054    0.197786   -1.663409    0.296813    0.023728
H    -1.614681    1.095709   -0.040640   -0.107462   -0.249694    0.023322
H     2.612104    0.897830   -0.134206   -0.056577    0.510834   -0.037153
12
* Frequency(28) 1512.6164
C     1.678061    0.282077   -0.063943    0.202892   -0.134074    0.005076
C     1.309338   -1.028816    0.044619   -0.403402   -0.036067    0.012936
N     0.286980   -1.542518    0.109571    0.526472    0.015709   -0.014789
C    -0.985740   -0.763027    0.083020    0.062049    0.059663   -0.006172
N    -0.721493    0.597200   -0.025609    0.129067    0.072184   -0.008872
C     0.428794    1.215121   -0.102690   -0.235504   -0.043330    0.009455
O    -2.171562   -1.272268    0.150428   -0.194883   -0.063344    0.009546
O     0.550234    2.455931   -0.200363    0.020762    0.040906   -0.003654
H     2.211156   -1.641571    0.068168   -0.062096    0.409570   -0.028379
H    -0.407719   -2.475759    0.196291   -1.663409    0.296813    0.023728
H    -1.607909    1.111444   -0.042110   -0.107462   -0.249694    0.023322
H     2.615669    0.865638   -0.131865   -0.056577    0.510834   -0.037153
12
* Frequency(28) 1512.6164
C     1.659614    0.294267   -0.064405    0.202892   -0.134074    0.005076
C     1.346016   -1.025536    0.043443   -0.403402   -0.036067    0.012936
N     0.239113   -1.543946    0.110915    0.526472    0.015709   -0.014789
C    -0.991382   -0.768452    0.083581    0.062049    0.059663   -0.006172
N    -0.733228    0.590637   -0.024802    0.129067    0.072184   -0.008872
C     0.450207    1.219060   -0.103550   -0.235504   -0.043330    0.009455
O    -2.153843   -1.266509    0.149560   -0.194883   -0.063344    0.009546
O     0.548346    2.452212   -0.200031    0.020762    0.040906   -0.003654
H     2.216802   -1.678809    0.070748   -0.062096    0.409570   -0.028379
H    -0.256479   -2.502746    0.194133   -1.663409    0.296813    0.023728
H    -1.598139    1.134147   -0.044230   -0.107462   -0.249694    0.023322
H     2.620813    0.819193   -0.128487   -0.056577    0.510834   -0.037153
12
* Frequency(28) 1512.6164
C     1.637504    0.308878   -0.064958    0.202892   -0.134074    0.005076
C     1.389976   -1.021606    0.042033   -0.403402   -0.036067    0.012936
N     0.181741   -1.545658    0.112527    0.526472    0.015709   -0.014789
C    -0.998143   -0.774954    0.084254    0.062049    0.059663   -0.006172
N    -0.747293    0.582771   -0.023836    0.129067    0.072184   -0.008872
C     0.475870    1.223782   -0.104580   -0.235504   -0.043330    0.009455
O    -2.132606   -1.259606    0.148520   -0.194883   -0.063344    0.009546
O     0.546084    2.447754   -0.199632    0.020762    0.040906   -0.003654
H     2.223569   -1.723442    0.073841   -0.062096    0.409570   -0.028379
H    -0.075211   -2.535090    0.191548   -1.663409    0.296813    0.023728
H    -1.586428    1.161357   -0.046772   -0.107462   -0.249694    0.023322
H     2.626978    0.763525   -0.124438   -0.056577    0.510834   -0.037153
12
* Frequency(28) 1512.6164
C     1.614127    0.324325   -0.065543    0.202892   -0.134074    0.005076
C     1.436454   -1.017451    0.040543   -0.403402   -0.036067    0.012936
N     0.121083   -1.547468    0.114231    0.526472    0.015709   -0.014789
C    -1.005292   -0.781828    0.084965    0.062049    0.059663   -0.006172
N    -0.762164    0.574454   -0.022813    0.129067    0.072184   -0.008872
C     0.503004    1.228775   -0.105670   -0.235504   -0.043330    0.009455
O    -2.110153   -1.252308    0.147420   -0.194883   -0.063344    0.009546
O     0.543692    2.443041   -0.199211    0.020762    0.040906   -0.003654
H     2.230723   -1.770631    0.077110   -0.062096    0.409570   -0.028379
H     0.116440   -2.569288    0.188814   -1.663409    0.296813    0.023728
H    -1.574047    1.190126   -0.049459   -0.107462   -0.249694    0.023322
H     2.633497    0.704669   -0.120157   -0.056577    0.510834   -0.037153
12
* Frequency(28) 1512.6164
C     1.592018    0.338936   -0.066096    0.202892   -0.134074    0.005076
C     1.480414   -1.013520    0.039133   -0.403402   -0.036067    0.012936
N     0.063712   -1.549180    0.115843    0.526472    0.015709   -0.014789
C    -1.012054   -0.788329    0.085637    0.062049    0.059663   -0.006172
N    -0.776228    0.566588   -0.021847    0.129067    0.072184   -0.008872
C     0.528668    1.233496   -0.106700   -0.235504   -0.043330    0.009455
O    -2.088916   -1.245405    0.146380   -0.194883   -0.063344    0.009546
O     0.541429    2.438584   -0.198813    0.020762    0.040906   -0.003654
H     2.237490   -1.815263    0.080203   -0.062096    0.409570   -0.028379
H     0.297708   -2.601633    0.186228   -1.663409    0.296813    0.023728
H    -1.562336    1.217336   -0.052000   -0.107462   -0.249694    0.023322
H     2.639662    0.649002   -0.116109   -0.056577    0.510834   -0.037153
12
* Frequency(28) 1512.6164
C     1.573570    0.351126   -0.066557    0.202892   -0.134074    0.005076
C     1.517093   -1.010241    0.037957   -0.403402   -0.036067    0.012936
N     0.015844   -1.550609    0.117187    0.526472    0.015709   -0.014789
C    -1.017695   -0.793754    0.086199    0.062049    0.059663   -0.006172
N    -0.787963    0.560025   -0.021040    0.129067    0.072184   -0.008872
C     0.550080    1.237436   -0.107560   -0.235504   -0.043330    0.009455
O    -2.071196   -1.239645    0.145512   -0.194883   -0.063344    0.009546
O     0.539542    2.434865   -0.198481    0.020762    0.040906   -0.003654
H     2.243136   -1.852502    0.082783   -0.062096    0.409570   -0.028379
H     0.448948   -2.628619    0.184071   -1.663409    0.296813    0.023728
H    -1.552566    1.240038   -0.054121   -0.107462   -0.249694    0.023322
H     2.644806    0.602556   -0.112731   -0.056577    0.510834   -0.037153
12
* Frequency(28) 1512.6164
C     1.560785    0.359575   -0.066877    0.202892   -0.134074    0.005076
C     1.542514   -1.007968    0.037142   -0.403402   -0.036067    0.012936
N    -0.017333   -1.551598    0.118119    0.526472    0.015709   -0.014789
C    -1.021606   -0.797514    0.086588    0.062049    0.059663   -0.006172
N    -0.796097    0.555476   -0.020481    0.129067    0.072184   -0.008872
C     0.564921    1.240167   -0.108155   -0.235504   -0.043330    0.009455
O    -2.058915   -1.235654    0.144911   -0.194883   -0.063344    0.009546
O     0.538233    2.432287   -0.198251    0.020762    0.040906   -0.003654
H     2.247049   -1.878312    0.084572   -0.062096    0.409570   -0.028379
H     0.553771   -2.647324    0.182576   -1.663409    0.296813    0.023728
H    -1.545794    1.255773   -0.055591   -0.107462   -0.249694    0.023322
H     2.648372    0.570364   -0.110389   -0.056577    0.510834   -0.037153
12
* Frequency(28) 1512.6164
C     1.555046    0.363367   -0.067021    0.202892   -0.134074    0.005076
C     1.553924   -1.006948    0.036776   -0.403402   -0.036067    0.012936
N    -0.032224   -1.552043    0.118537    0.526472    0.015709   -0.014789
C    -1.023361   -0.799201    0.086762    0.062049    0.059663   -0.006172
N    -0.799747    0.553434   -0.020230    0.129067    0.072184   -0.008872
C     0.571582    1.241392   -0.108423   -0.235504   -0.043330    0.009455
O    -2.053403   -1.233862    0.144641   -0.194883   -0.063344    0.009546
O     0.537646    2.431130   -0.198147    0.020762    0.040906   -0.003654
H     2.248805   -1.889896    0.085374   -0.062096    0.409570   -0.028379
H     0.600819   -2.655719    0.181905   -1.663409    0.296813    0.023728
H    -1.542754    1.262836   -0.056250   -0.107462   -0.249694    0.023322
H     2.649972    0.555916   -0.109339   -0.056577    0.510834   -0.037153
12
* Frequency(28) 1512.6164
C     1.556976    0.362092   -0.066972    0.202892   -0.134074    0.005076
C     1.550085   -1.007291    0.036899   -0.403402   -0.036067    0.012936
N    -0.027215   -1.551893    0.118397    0.526472    0.015709   -0.014789
C    -1.022770   -0.798634    0.086703    0.062049    0.059663   -0.006172
N    -0.798519    0.554121   -0.020314    0.129067    0.072184   -0.008872
C     0.569341    1.240980   -0.108333   -0.235504   -0.043330    0.009455
O    -2.055258   -1.234465    0.144731   -0.194883   -0.063344    0.009546
O     0.537844    2.431519   -0.198182    0.020762    0.040906   -0.003654
H     2.248215   -1.885999    0.085104   -0.062096    0.409570   -0.028379
H     0.584992   -2.652895    0.182130   -1.663409    0.296813    0.023728
H    -1.543777    1.260460   -0.056028   -0.107462   -0.249694    0.023322
H     2.649434    0.560776   -0.109692   -0.056577    0.510834   -0.037153
12
* Frequency(28) 1512.6164
C     1.566367    0.355886   -0.066737    0.202892   -0.134074    0.005076
C     1.531415   -1.008961    0.037498   -0.403402   -0.036067    0.012936
N    -0.002848   -1.551166    0.117712    0.526472    0.015709   -0.014789
C    -1.019898   -0.795872    0.086418    0.062049    0.059663   -0.006172
N    -0.792546    0.557462   -0.020725    0.129067    0.072184   -0.008872
C     0.558442    1.238974   -0.107895   -0.235504   -0.043330    0.009455
O    -2.064277   -1.237396    0.145173   -0.194883   -0.063344    0.009546
O     0.538804    2.433412   -0.198351    0.020762    0.040906   -0.003654
H     2.245341   -1.867044    0.083791   -0.062096    0.409570   -0.028379
H     0.508007   -2.639158    0.183229   -1.663409    0.296813    0.023728
H    -1.548750    1.248904   -0.054949   -0.107462   -0.249694    0.023322
H     2.646815    0.584419   -0.111412   -0.056577    0.510834   -0.037153
12
* Frequency(28) 1512.6164
C     1.582199    0.345424   -0.066341    0.202892   -0.134074    0.005076
C     1.499936   -1.011775    0.038507   -0.403402   -0.036067    0.012936
N     0.038234   -1.549940    0.116558    0.526472    0.015709   -0.014789
C    -1.015057   -0.791217    0.085936    0.062049    0.059663   -0.006172
N    -0.782474    0.563095   -0.021417    0.129067    0.072184   -0.008872
C     0.540065    1.235593   -0.107157   -0.235504   -0.043330    0.009455
O    -2.079485   -1.242339    0.145918   -0.194883   -0.063344    0.009546
O     0.540425    2.436604   -0.198636    0.020762    0.040906   -0.003654
H     2.240495   -1.835083    0.081576   -0.062096    0.409570   -0.028379
H     0.378205   -2.615996    0.185080   -1.663409    0.296813    0.023728
H    -1.557136    1.229419   -0.053129   -0.107462   -0.249694    0.023322
H     2.642400    0.624281   -0.114311   -0.056577    0.510834   -0.037153
12
* Frequency(28) 1512.6164
C     1.602758    0.331838   -0.065827    0.202892   -0.134074    0.005076
C     1.459060   -1.015430    0.039818   -0.403402   -0.036067    0.012936
N     0.091581   -1.548349    0.115060    0.526472    0.015709   -0.014789
C    -1.008769   -0.785171    0.085311    0.062049    0.059663   -0.006172
N    -0.769396    0.570409   -0.022316    0.129067    0.072184   -0.008872
C     0.516201    1.231203   -0.106199   -0.235504   -0.043330    0.009455
O    -2.099232   -1.248758    0.146885   -0.194883   -0.063344    0.009546
O     0.542528    2.440749   -0.199007    0.020762    0.040906   -0.003654
H     2.234203   -1.793582    0.078701   -0.062096    0.409570   -0.028379
H     0.209652   -2.585920    0.187484   -1.663409    0.296813    0.023728
H    -1.568025    1.204118   -0.050766   -0.107462   -0.249694    0.023322
H     2.636667    0.676044   -0.118075   -0.056577    0.510834   -0.037153
12
* Frequency(28) 1512.6164
C     1.625816    0.316601   -0.065250    0.202892   -0.134074    0.005076
C     1.413215   -1.019528    0.041288   -0.403402   -0.036067    0.012936
N     0.151412   -1.546563    0.113379    0.526472    0.015709   -0.014789
C    -1.001718   -0.778391    0.084609    0.062049    0.059663   -0.006172
N    -0.754728    0.578612   -0.023325    0.129067    0.072184   -0.008872
C     0.489437    1.226278   -0.105125   -0.235504   -0.043330    0.009455
O    -2.121379   -1.255957    0.147970   -0.194883   -0.063344    0.009546
O     0.544888    2.445398   -0.199422    0.020762    0.040906   -0.003654
H     2.227146   -1.747036    0.075476   -0.062096    0.409570   -0.028379
H     0.020614   -2.552189    0.190181   -1.663409    0.296813    0.023728
H    -1.580237    1.175741   -0.048115   -0.107462   -0.249694    0.023322
H     2.630238    0.734097   -0.122298   -0.056577    0.510834   -0.037153
