13
Coordinates from ORCA-job Uracil_1 E -414.746495087989
  C           1.39575151059507      0.53550137084063     -0.05941430085017
  C           1.16980814550243     -0.77826461275300      0.15985634041488
  N          -0.11531559935907     -1.26434413728277      0.35120176827582
  C          -1.17556259949368     -0.45037494618248      0.33012163214583
  N          -0.98288967243279      0.85141677670966      0.11025647113354
  C           0.28557540275810      1.47745821374482     -0.10306312998513
  O          -2.39691468324822     -0.84890205610758      0.51201030052795
  O           0.33922525485502      2.67256535624190     -0.29111642963000
  H           1.95586071161834     -1.53339647481523      0.20274472058372
  H          -0.24643326095908     -2.26547810844122      0.50656086168183
  H           2.40466134376088      0.91953117487278     -0.20789311119383
  H          -1.80569552470983      1.45962753911404      0.10027055659160
  H          -2.48963102888717     -1.80317009594153      0.70109432030395
