13
* (null), Energy   -1000.0000000
C     1.393781    0.533776   -0.062691   -0.005356   -0.008913   -0.059388
C     1.168148   -0.779758    0.160441   -0.002564   -0.003669   -0.026198
N    -0.116197   -1.262094    0.357179    0.008340    0.013932    0.087733
C    -1.173993   -0.446979    0.334824    0.007627    0.013801    0.088234
N    -0.982141    0.854104    0.116669    0.029116    0.046982    0.303998
C     0.285100    1.476626   -0.101181    0.004582    0.006670    0.041973
O    -2.392774   -0.849779    0.515859   -0.010378   -0.017135   -0.102306
O     0.338858    2.672655   -0.290012   -0.014186   -0.023803   -0.156090
H     1.953348   -1.535224    0.201378   -0.010467   -0.016195   -0.106287
H    -0.254993   -2.258813    0.525028    0.025003    0.036227    0.234600
H     2.401547    0.916834   -0.219517   -0.021351   -0.034621   -0.225205
H    -1.805505    1.460126    0.102516    0.011742    0.019008    0.117537
H    -2.476740   -1.809302    0.672136   -0.186633   -0.295114   -1.894496
13
* Frequency(6)  111.9723
C     1.393173    0.532763   -0.069440   -0.005356   -0.008913   -0.059388
C     1.167857   -0.780175    0.157464   -0.002564   -0.003669   -0.026198
N    -0.115249   -1.260511    0.367150    0.008340    0.013932    0.087733
C    -1.173126   -0.445411    0.344851    0.007627    0.013801    0.088234
N    -0.978832    0.859443    0.151217    0.029116    0.046982    0.303998
C     0.285621    1.477384   -0.096411    0.004582    0.006670    0.041973
O    -2.393954   -0.851727    0.504232   -0.010378   -0.017135   -0.102306
O     0.337246    2.669949   -0.307751   -0.014186   -0.023803   -0.156090
H     1.952159   -1.537064    0.189299   -0.010467   -0.016195   -0.106287
H    -0.252152   -2.254696    0.551689    0.025003    0.036227    0.234600
H     2.399120    0.912899   -0.245110   -0.021351   -0.034621   -0.225205
H    -1.804170    1.462286    0.115873    0.011742    0.019008    0.117537
H    -2.497950   -1.842840    0.456836   -0.186633   -0.295114   -1.894496
13
* Frequency(6)  111.9723
C     1.392630    0.531860   -0.075457   -0.005356   -0.008913   -0.059388
C     1.167597   -0.780547    0.154809   -0.002564   -0.003669   -0.026198
N    -0.114404   -1.259099    0.376040    0.008340    0.013932    0.087733
C    -1.172353   -0.444012    0.353792    0.007627    0.013801    0.088234
N    -0.975882    0.864204    0.182021    0.029116    0.046982    0.303998
C     0.286085    1.478060   -0.092158    0.004582    0.006670    0.041973
O    -2.395005   -0.853463    0.493866   -0.010378   -0.017135   -0.102306
O     0.335809    2.667538   -0.323567   -0.014186   -0.023803   -0.156090
H     1.951098   -1.538705    0.178529   -0.010467   -0.016195   -0.106287
H    -0.249618   -2.251025    0.575461    0.025003    0.036227    0.234600
H     2.396957    0.909391   -0.267930   -0.021351   -0.034621   -0.225205
H    -1.802981    1.464213    0.127783    0.011742    0.019008    0.117537
H    -2.516861   -1.872743    0.264868   -0.186633   -0.295114   -1.894496
13
* Frequency(6)  111.9723
C     1.392212    0.531164   -0.080092   -0.005356   -0.008913   -0.059388
C     1.167397   -0.780834    0.152765   -0.002564   -0.003669   -0.026198
N    -0.113753   -1.258012    0.382886    0.008340    0.013932    0.087733
C    -1.171758   -0.442935    0.360677    0.007627    0.013801    0.088234
N    -0.973610    0.867870    0.205743    0.029116    0.046982    0.303998
C     0.286443    1.478580   -0.088883    0.004582    0.006670    0.041973
O    -2.395815   -0.854800    0.485883   -0.010378   -0.017135   -0.102306
O     0.334702    2.665680   -0.335748   -0.014186   -0.023803   -0.156090
H     1.950281   -1.539969    0.170235   -0.010467   -0.016195   -0.106287
H    -0.247667   -2.248199    0.593768    0.025003    0.036227    0.234600
H     2.395290    0.906689   -0.285503   -0.021351   -0.034621   -0.225205
H    -1.802064    1.465696    0.136955    0.011742    0.019008    0.117537
H    -2.531425   -1.895772    0.117033   -0.186633   -0.295114   -1.894496
13
* Frequency(6)  111.9723
C     1.391964    0.530752   -0.082840   -0.005356   -0.008913   -0.059388
C     1.167279   -0.781003    0.151552   -0.002564   -0.003669   -0.026198
N    -0.113367   -1.257367    0.386946    0.008340    0.013932    0.087733
C    -1.171405   -0.442296    0.364761    0.007627    0.013801    0.088234
N    -0.972262    0.870044    0.219812    0.029116    0.046982    0.303998
C     0.286655    1.478889   -0.086940    0.004582    0.006670    0.041973
O    -2.396296   -0.855593    0.481148   -0.010378   -0.017135   -0.102306
O     0.334045    2.664578   -0.342972   -0.014186   -0.023803   -0.156090
H     1.949797   -1.540719    0.165316   -0.010467   -0.016195   -0.106287
H    -0.246510   -2.246522    0.604626    0.025003    0.036227    0.234600
H     2.394302    0.905087   -0.295926   -0.021351   -0.034621   -0.225205
H    -1.801521    1.466575    0.142395    0.011742    0.019008    0.117537
H    -2.540063   -1.909431    0.029352   -0.186633   -0.295114   -1.894496
13
* Frequency(6)  111.9723
C     1.391913    0.530667   -0.083405   -0.005356   -0.008913   -0.059388
C     1.167254   -0.781038    0.151303   -0.002564   -0.003669   -0.026198
N    -0.113288   -1.257234    0.387781    0.008340    0.013932    0.087733
C    -1.171332   -0.442165    0.365601    0.007627    0.013801    0.088234
N    -0.971985    0.870491    0.222705    0.029116    0.046982    0.303998
C     0.286698    1.478952   -0.086541    0.004582    0.006670    0.041973
O    -2.396394   -0.855756    0.480174   -0.010378   -0.017135   -0.102306
O     0.333910    2.664352   -0.344457   -0.014186   -0.023803   -0.156090
H     1.949697   -1.540873    0.164304   -0.010467   -0.016195   -0.106287
H    -0.246272   -2.246177    0.606858    0.025003    0.036227    0.234600
H     2.394099    0.904757   -0.298069   -0.021351   -0.034621   -0.225205
H    -1.801409    1.466756    0.143513    0.011742    0.019008    0.117537
H    -2.541838   -1.912239    0.011327   -0.186633   -0.295114   -1.894496
13
* Frequency(6)  111.9723
C     1.392065    0.530919   -0.081725   -0.005356   -0.008913   -0.059388
C     1.167327   -0.780935    0.152044   -0.002564   -0.003669   -0.026198
N    -0.113524   -1.257628    0.385300    0.008340    0.013932    0.087733
C    -1.171548   -0.442555    0.363105    0.007627    0.013801    0.088234
N    -0.972809    0.869162    0.214106    0.029116    0.046982    0.303998
C     0.286569    1.478764   -0.087728    0.004582    0.006670    0.041973
O    -2.396101   -0.855271    0.483068   -0.010378   -0.017135   -0.102306
O     0.334311    2.665025   -0.340042   -0.014186   -0.023803   -0.156090
H     1.949994   -1.540415    0.167311   -0.010467   -0.016195   -0.106287
H    -0.246979   -2.247202    0.600222    0.025003    0.036227    0.234600
H     2.394703    0.905737   -0.291699   -0.021351   -0.034621   -0.225205
H    -1.801741    1.466219    0.140189    0.011742    0.019008    0.117537
H    -2.536560   -1.903892    0.064911   -0.186633   -0.295114   -1.894496
13
* Frequency(6)  111.9723
C     1.392402    0.531481   -0.077983   -0.005356   -0.008913   -0.059388
C     1.167488   -0.780703    0.153695   -0.002564   -0.003669   -0.026198
N    -0.114049   -1.258506    0.379771    0.008340    0.013932    0.087733
C    -1.172029   -0.443425    0.357545    0.007627    0.013801    0.088234
N    -0.974644    0.866202    0.194949    0.029116    0.046982    0.303998
C     0.286280    1.478343   -0.090373    0.004582    0.006670    0.041973
O    -2.395447   -0.854192    0.489515   -0.010378   -0.017135   -0.102306
O     0.335205    2.666525   -0.330206   -0.014186   -0.023803   -0.156090
H     1.950653   -1.539394    0.174009   -0.010467   -0.016195   -0.106287
H    -0.248555   -2.249485    0.585438    0.025003    0.036227    0.234600
H     2.396048    0.907918   -0.277508   -0.021351   -0.034621   -0.225205
H    -1.802481    1.465021    0.132782    0.011742    0.019008    0.117537
H    -2.524799   -1.885294    0.184297   -0.186633   -0.295114   -1.894496
13
* Frequency(6)  111.9723
C     1.392889    0.532291   -0.072583   -0.005356   -0.008913   -0.059388
C     1.167721   -0.780370    0.156077   -0.002564   -0.003669   -0.026198
N    -0.114807   -1.259773    0.371794    0.008340    0.013932    0.087733
C    -1.172722   -0.444680    0.349522    0.007627    0.013801    0.088234
N    -0.977291    0.861930    0.167309    0.029116    0.046982    0.303998
C     0.285863    1.477737   -0.094189    0.004582    0.006670    0.041973
O    -2.394503   -0.852634    0.498817   -0.010378   -0.017135   -0.102306
O     0.336495    2.668689   -0.316014   -0.014186   -0.023803   -0.156090
H     1.951605   -1.537922    0.183672   -0.010467   -0.016195   -0.106287
H    -0.250828   -2.252779    0.564108    0.025003    0.036227    0.234600
H     2.397990    0.911066   -0.257031   -0.021351   -0.034621   -0.225205
H    -1.803549    1.463293    0.122095    0.011742    0.019008    0.117537
H    -2.507830   -1.858462    0.356548   -0.186633   -0.295114   -1.894496
13
* Frequency(6)  111.9723
C     1.393473    0.533262   -0.066112   -0.005356   -0.008913   -0.059388
C     1.168001   -0.779970    0.158932   -0.002564   -0.003669   -0.026198
N    -0.115716   -1.261291    0.362234    0.008340    0.013932    0.087733
C    -1.173553   -0.446184    0.339907    0.007627    0.013801    0.088234
N    -0.980464    0.856810    0.134182    0.029116    0.046982    0.303998
C     0.285364    1.477010   -0.098763    0.004582    0.006670    0.041973
O    -2.393372   -0.850766    0.509965   -0.010378   -0.017135   -0.102306
O     0.338041    2.671283   -0.299004   -0.014186   -0.023803   -0.156090
H     1.952745   -1.536157    0.195255   -0.010467   -0.016195   -0.106287
H    -0.253553   -2.256726    0.538543    0.025003    0.036227    0.234600
H     2.400317    0.914839   -0.232490   -0.021351   -0.034621   -0.225205
H    -1.804828    1.461221    0.109287    0.011742    0.019008    0.117537
H    -2.487491   -1.826302    0.562998   -0.186633   -0.295114   -1.894496
13
* Frequency(6)  111.9723
C     1.394090    0.534289   -0.059269   -0.005356   -0.008913   -0.059388
C     1.168296   -0.779547    0.161950   -0.002564   -0.003669   -0.026198
N    -0.116677   -1.262896    0.352125    0.008340    0.013932    0.087733
C    -1.174432   -0.447774    0.329741    0.007627    0.013801    0.088234
N    -0.983818    0.851397    0.099156    0.029116    0.046982    0.303998
C     0.284836    1.476241   -0.103599    0.004582    0.006670    0.041973
O    -2.392176   -0.848792    0.521753   -0.010378   -0.017135   -0.102306
O     0.339675    2.674026   -0.281020   -0.014186   -0.023803   -0.156090
H     1.953951   -1.534291    0.207501   -0.010467   -0.016195   -0.106287
H    -0.256434   -2.260900    0.511513    0.025003    0.036227    0.234600
H     2.402777    0.918828   -0.206543   -0.021351   -0.034621   -0.225205
H    -1.806181    1.459031    0.095745    0.011742    0.019008    0.117537
H    -2.465988   -1.792301    0.781274   -0.186633   -0.295114   -1.894496
13
* Frequency(6)  111.9723
C     1.394674    0.535261   -0.052798   -0.005356   -0.008913   -0.059388
C     1.168575   -0.779147    0.164805   -0.002564   -0.003669   -0.026198
N    -0.117586   -1.264415    0.342565    0.008340    0.013932    0.087733
C    -1.175263   -0.449278    0.320126    0.007627    0.013801    0.088234
N    -0.986991    0.846277    0.066028    0.029116    0.046982    0.303998
C     0.284337    1.475515   -0.108173    0.004582    0.006670    0.041973
O    -2.391045   -0.846925    0.532901   -0.010378   -0.017135   -0.102306
O     0.341221    2.676620   -0.264010   -0.014186   -0.023803   -0.156090
H     1.955092   -1.532526    0.219083   -0.010467   -0.016195   -0.106287
H    -0.259158   -2.264848    0.485948    0.025003    0.036227    0.234600
H     2.405103    0.922601   -0.182002   -0.021351   -0.034621   -0.225205
H    -1.807461    1.456960    0.082936    0.011742    0.019008    0.117537
H    -2.445650   -1.760141    0.987724   -0.186633   -0.295114   -1.894496
13
* Frequency(6)  111.9723
C     1.395161    0.536071   -0.047398   -0.005356   -0.008913   -0.059388
C     1.168808   -0.778814    0.167187   -0.002564   -0.003669   -0.026198
N    -0.118344   -1.265681    0.334588    0.008340    0.013932    0.087733
C    -1.175957   -0.450533    0.312104    0.007627    0.013801    0.088234
N    -0.989638    0.842006    0.038388    0.029116    0.046982    0.303998
C     0.283920    1.474908   -0.111990    0.004582    0.006670    0.041973
O    -2.390102   -0.845367    0.542203   -0.010378   -0.017135   -0.102306
O     0.342511    2.678784   -0.249818   -0.014186   -0.023803   -0.156090
H     1.956043   -1.531054    0.228747   -0.010467   -0.016195   -0.106287
H    -0.261432   -2.268142    0.464618    0.025003    0.036227    0.234600
H     2.407045    0.925749   -0.161526   -0.021351   -0.034621   -0.225205
H    -1.808528    1.455232    0.072250    0.011742    0.019008    0.117537
H    -2.428681   -1.733309    1.159975   -0.186633   -0.295114   -1.894496
13
* Frequency(6)  111.9723
C     1.395498    0.536633   -0.043656   -0.005356   -0.008913   -0.059388
C     1.168970   -0.778582    0.168838   -0.002564   -0.003669   -0.026198
N    -0.118870   -1.266559    0.329059    0.008340    0.013932    0.087733
C    -1.176437   -0.451403    0.306543    0.007627    0.013801    0.088234
N    -0.991473    0.839045    0.019231    0.029116    0.046982    0.303998
C     0.283631    1.474488   -0.114635    0.004582    0.006670    0.041973
O    -2.389448   -0.844287    0.548650   -0.010378   -0.017135   -0.102306
O     0.343405    2.680284   -0.239982   -0.014186   -0.023803   -0.156090
H     1.956703   -1.530033    0.235445   -0.010467   -0.016195   -0.106287
H    -0.263007   -2.270425    0.449834    0.025003    0.036227    0.234600
H     2.408390    0.927930   -0.147334   -0.021351   -0.034621   -0.225205
H    -1.809268    1.454034    0.064843    0.011742    0.019008    0.117537
H    -2.416920   -1.714712    1.279361   -0.186633   -0.295114   -1.894496
13
* Frequency(6)  111.9723
C     1.395650    0.536885   -0.041976   -0.005356   -0.008913   -0.059388
C     1.169043   -0.778479    0.169579   -0.002564   -0.003669   -0.026198
N    -0.119106   -1.266953    0.326578    0.008340    0.013932    0.087733
C    -1.176653   -0.451793    0.304048    0.007627    0.013801    0.088234
N    -0.992297    0.837716    0.010633    0.029116    0.046982    0.303998
C     0.283502    1.474299   -0.115822    0.004582    0.006670    0.041973
O    -2.389154   -0.843803    0.551544   -0.010378   -0.017135   -0.102306
O     0.343806    2.680957   -0.235567   -0.014186   -0.023803   -0.156090
H     1.956999   -1.529575    0.238451   -0.010467   -0.016195   -0.106287
H    -0.263714   -2.271450    0.443199    0.025003    0.036227    0.234600
H     2.408994    0.928910   -0.140964   -0.021351   -0.034621   -0.225205
H    -1.809600    1.453496    0.061518    0.011742    0.019008    0.117537
H    -2.411641   -1.706365    1.332945   -0.186633   -0.295114   -1.894496
13
* Frequency(6)  111.9723
C     1.395599    0.536800   -0.042541   -0.005356   -0.008913   -0.059388
C     1.169018   -0.778514    0.169330   -0.002564   -0.003669   -0.026198
N    -0.119026   -1.266821    0.327413    0.008340    0.013932    0.087733
C    -1.176581   -0.451662    0.304887    0.007627    0.013801    0.088234
N    -0.992020    0.838163    0.013526    0.029116    0.046982    0.303998
C     0.283545    1.474363   -0.115423    0.004582    0.006670    0.041973
O    -2.389253   -0.843966    0.550570   -0.010378   -0.017135   -0.102306
O     0.343671    2.680731   -0.237052   -0.014186   -0.023803   -0.156090
H     1.956899   -1.529729    0.237440   -0.010467   -0.016195   -0.106287
H    -0.263476   -2.271105    0.445431    0.025003    0.036227    0.234600
H     2.408791    0.928580   -0.143107   -0.021351   -0.034621   -0.225205
H    -1.809489    1.453677    0.062637    0.011742    0.019008    0.117537
H    -2.413417   -1.709172    1.314920   -0.186633   -0.295114   -1.894496
13
* Frequency(6)  111.9723
C     1.395351    0.536387   -0.045289   -0.005356   -0.008913   -0.059388
C     1.168899   -0.778683    0.168117   -0.002564   -0.003669   -0.026198
N    -0.118640   -1.266176    0.331473    0.008340    0.013932    0.087733
C    -1.176228   -0.451023    0.308971    0.007627    0.013801    0.088234
N    -0.990672    0.840337    0.027595    0.029116    0.046982    0.303998
C     0.283757    1.474671   -0.113480    0.004582    0.006670    0.041973
O    -2.389733   -0.844759    0.545836   -0.010378   -0.017135   -0.102306
O     0.343015    2.679629   -0.244276   -0.014186   -0.023803   -0.156090
H     1.956415   -1.530479    0.232521   -0.010467   -0.016195   -0.106287
H    -0.262319   -2.269428    0.456288    0.025003    0.036227    0.234600
H     2.407803    0.926978   -0.153530   -0.021351   -0.034621   -0.225205
H    -1.808945    1.454557    0.068076    0.011742    0.019008    0.117537
H    -2.422055   -1.722831    1.227239   -0.186633   -0.295114   -1.894496
13
* Frequency(6)  111.9723
C     1.394933    0.535692   -0.049924   -0.005356   -0.008913   -0.059388
C     1.168699   -0.778970    0.166073   -0.002564   -0.003669   -0.026198
N    -0.117990   -1.265089    0.338319    0.008340    0.013932    0.087733
C    -1.175632   -0.449946    0.315856    0.007627    0.013801    0.088234
N    -0.988400    0.844004    0.051317    0.029116    0.046982    0.303998
C     0.284115    1.475192   -0.110205    0.004582    0.006670    0.041973
O    -2.390543   -0.846096    0.537852   -0.010378   -0.017135   -0.102306
O     0.341908    2.677772   -0.256457   -0.014186   -0.023803   -0.156090
H     1.955598   -1.531742    0.224227   -0.010467   -0.016195   -0.106287
H    -0.260368   -2.266601    0.474595    0.025003    0.036227    0.234600
H     2.406136    0.924276   -0.171103   -0.021351   -0.034621   -0.225205
H    -1.808029    1.456040    0.077248    0.011742    0.019008    0.117537
H    -2.436619   -1.745860    1.079404   -0.186633   -0.295114   -1.894496
13
* Frequency(6)  111.9723
C     1.394390    0.534789   -0.055941   -0.005356   -0.008913   -0.059388
C     1.168440   -0.779342    0.163418   -0.002564   -0.003669   -0.026198
N    -0.117145   -1.263677    0.347209    0.008340    0.013932    0.087733
C    -1.174860   -0.448547    0.324797    0.007627    0.013801    0.088234
N    -0.985450    0.848764    0.082121    0.029116    0.046982    0.303998
C     0.284579    1.475868   -0.105951    0.004582    0.006670    0.041973
O    -2.391595   -0.847832    0.527486   -0.010378   -0.017135   -0.102306
O     0.340470    2.675360   -0.272273   -0.014186   -0.023803   -0.156090
H     1.954538   -1.533383    0.213457   -0.010467   -0.016195   -0.106287
H    -0.257835   -2.262930    0.498367    0.025003    0.036227    0.234600
H     2.403973    0.920768   -0.193923   -0.021351   -0.034621   -0.225205
H    -1.806839    1.457966    0.089158    0.011742    0.019008    0.117537
H    -2.455530   -1.775763    0.887436   -0.186633   -0.295114   -1.894496
13
* Frequency(6)  111.9723
C     1.393781    0.533776   -0.062691   -0.005356   -0.008913   -0.059388
C     1.168148   -0.779758    0.160441   -0.002564   -0.003669   -0.026198
N    -0.116197   -1.262094    0.357179    0.008340    0.013932    0.087733
C    -1.173993   -0.446979    0.334824    0.007627    0.013801    0.088234
N    -0.982141    0.854104    0.116669    0.029116    0.046982    0.303998
C     0.285100    1.476626   -0.101181    0.004582    0.006670    0.041973
O    -2.392774   -0.849779    0.515859   -0.010378   -0.017135   -0.102306
O     0.338858    2.672655   -0.290012   -0.014186   -0.023803   -0.156090
H     1.953348   -1.535224    0.201378   -0.010467   -0.016195   -0.106287
H    -0.254993   -2.258813    0.525028    0.025003    0.036227    0.234600
H     2.401547    0.916834   -0.219517   -0.021351   -0.034621   -0.225205
H    -1.805505    1.460126    0.102516    0.011742    0.019008    0.117537
H    -2.476740   -1.809302    0.672136   -0.186633   -0.295114   -1.894496
