13
* (null), Energy   -1000.0000000
C     1.646520    0.274089   -0.194207    0.145308   -0.039701   -0.047184
C     1.420577   -1.039677    0.025063    0.137055   -0.079232    0.030017
N     0.135453   -1.525757    0.216409    0.135763   -0.282533    0.037709
C    -0.924794   -0.711788    0.195329    0.210123   -0.151106   -0.000404
N    -0.732121    0.590004   -0.024536    0.360536   -0.252435    0.033532
C     0.536344    1.216046   -0.237856    0.030355   -0.088415   -0.010255
O    -2.146146   -1.110315    0.377217   -0.096813    0.749248   -0.157890
O     0.589994    2.411153   -0.425909   -0.726173   -0.026635    0.085589
H     2.206629   -1.794809    0.067952    0.208909   -0.006652    0.058283
H     0.004335   -2.526891    0.371768    0.120500   -0.328683   -0.151065
H     2.655430    0.658119   -0.342686    0.179468   -0.114879   -0.036258
H    -1.554927    1.198215   -0.034522    0.354048   -0.268779    0.152326
H    -2.238862   -2.064583    0.566301   -0.926953    0.954708    0.465897
13
* Frequency(8)  370.4874
C     1.663034    0.269577   -0.199569    0.145308   -0.039701   -0.047184
C     1.436152   -1.048681    0.028475    0.137055   -0.079232    0.030017
N     0.150882   -1.557865    0.220694    0.135763   -0.282533    0.037709
C    -0.900915   -0.728960    0.195283    0.210123   -0.151106   -0.000404
N    -0.691148    0.561316   -0.020726    0.360536   -0.252435    0.033532
C     0.539794    1.205998   -0.239021    0.030355   -0.088415   -0.010255
O    -2.157148   -1.025166    0.359274   -0.096813    0.749248   -0.157890
O     0.507468    2.408126   -0.416183   -0.726173   -0.026635    0.085589
H     2.230371   -1.795565    0.074575    0.208909   -0.006652    0.058283
H     0.018029   -2.564244    0.354600    0.120500   -0.328683   -0.151065
H     2.675825    0.645063   -0.346806    0.179468   -0.114879   -0.036258
H    -1.514691    1.167670   -0.017211    0.354048   -0.268779    0.152326
H    -2.344206   -1.956085    0.619248   -0.926953    0.954708    0.465897
13
* Frequency(8)  370.4874
C     1.677758    0.265554   -0.204350    0.145308   -0.039701   -0.047184
C     1.450040   -1.056710    0.031516    0.137055   -0.079232    0.030017
N     0.164639   -1.586494    0.224515    0.135763   -0.282533    0.037709
C    -0.879623   -0.744271    0.195242    0.210123   -0.151106   -0.000404
N    -0.654615    0.535737   -0.017328    0.360536   -0.252435    0.033532
C     0.542869    1.197039   -0.240061    0.030355   -0.088415   -0.010255
O    -2.166958   -0.949245    0.343275   -0.096813    0.749248   -0.157890
O     0.433885    2.405427   -0.407510   -0.726173   -0.026635    0.085589
H     2.251539   -1.796239    0.080481    0.208909   -0.006652    0.058283
H     0.030240   -2.597549    0.339293    0.120500   -0.328683   -0.151065
H     2.694011    0.633422   -0.350480    0.179468   -0.114879   -0.036258
H    -1.478816    1.140434   -0.001776    0.354048   -0.268779    0.152326
H    -2.438134   -1.859345    0.666457   -0.926953    0.954708    0.465897
13
* Frequency(8)  370.4874
C     1.689097    0.262456   -0.208032    0.145308   -0.039701   -0.047184
C     1.460735   -1.062893    0.033859    0.137055   -0.079232    0.030017
N     0.175233   -1.608541    0.227458    0.135763   -0.282533    0.037709
C    -0.863226   -0.756063    0.195210    0.210123   -0.151106   -0.000404
N    -0.626481    0.516039   -0.014711    0.360536   -0.252435    0.033532
C     0.545238    1.190139   -0.240861    0.030355   -0.088415   -0.010255
O    -2.174513   -0.890779    0.330954   -0.096813    0.749248   -0.157890
O     0.377219    2.403349   -0.400831   -0.726173   -0.026635    0.085589
H     2.267841   -1.796758    0.085029    0.208909   -0.006652    0.058283
H     0.039643   -2.623198    0.327505    0.120500   -0.328683   -0.151065
H     2.708015    0.624458   -0.353310    0.179468   -0.114879   -0.036258
H    -1.451188    1.119460    0.010111    0.354048   -0.268779    0.152326
H    -2.510467   -1.784845    0.702813   -0.926953    0.954708    0.465897
13
* Frequency(8)  370.4874
C     1.695822    0.260619   -0.210216    0.145308   -0.039701   -0.047184
C     1.467078   -1.066560    0.035248    0.137055   -0.079232    0.030017
N     0.181516   -1.621617    0.229203    0.135763   -0.282533    0.037709
C    -0.853501   -0.763056    0.195192    0.210123   -0.151106   -0.000404
N    -0.609795    0.504356   -0.013159    0.360536   -0.252435    0.033532
C     0.546643    1.186047   -0.241335    0.030355   -0.088415   -0.010255
O    -2.178994   -0.856102    0.323647   -0.096813    0.749248   -0.157890
O     0.343610    2.402116   -0.396870   -0.726173   -0.026635    0.085589
H     2.277510   -1.797066    0.087727    0.208909   -0.006652    0.058283
H     0.045220   -2.638410    0.320513    0.120500   -0.328683   -0.151065
H     2.716321    0.619141   -0.354988    0.179468   -0.114879   -0.036258
H    -1.434802    1.107021    0.017161    0.354048   -0.268779    0.152326
H    -2.553368   -1.740660    0.724376   -0.926953    0.954708    0.465897
13
* Frequency(8)  370.4874
C     1.697204    0.260241   -0.210665    0.145308   -0.039701   -0.047184
C     1.468382   -1.067314    0.035534    0.137055   -0.079232    0.030017
N     0.182808   -1.624305    0.229562    0.135763   -0.282533    0.037709
C    -0.851502   -0.764494    0.195188    0.210123   -0.151106   -0.000404
N    -0.606365    0.501954   -0.012840    0.360536   -0.252435    0.033532
C     0.546932    1.185206   -0.241433    0.030355   -0.088415   -0.010255
O    -2.179915   -0.848974    0.322145   -0.096813    0.749248   -0.157890
O     0.336701    2.401862   -0.396056   -0.726173   -0.026635    0.085589
H     2.279498   -1.797129    0.088281    0.208909   -0.006652    0.058283
H     0.046366   -2.641537    0.319076    0.120500   -0.328683   -0.151065
H     2.718029    0.618048   -0.355333    0.179468   -0.114879   -0.036258
H    -1.431433    1.104464    0.018610    0.354048   -0.268779    0.152326
H    -2.562188   -1.731576    0.728808   -0.926953    0.954708    0.465897
13
* Frequency(8)  370.4874
C     1.693094    0.261364   -0.209330    0.145308   -0.039701   -0.047184
C     1.464506   -1.065073    0.034685    0.137055   -0.079232    0.030017
N     0.178968   -1.616314    0.228495    0.135763   -0.282533    0.037709
C    -0.857445   -0.760220    0.195199    0.210123   -0.151106   -0.000404
N    -0.616562    0.509094   -0.013789    0.360536   -0.252435    0.033532
C     0.546073    1.187707   -0.241143    0.030355   -0.088415   -0.010255
O    -2.177177   -0.870165    0.326610   -0.096813    0.749248   -0.157890
O     0.357240    2.402616   -0.398476   -0.726173   -0.026635    0.085589
H     2.273589   -1.796941    0.086633    0.208909   -0.006652    0.058283
H     0.042958   -2.632240    0.323348    0.120500   -0.328683   -0.151065
H     2.712953    0.621297   -0.354307    0.179468   -0.114879   -0.036258
H    -1.441447    1.112066    0.014301    0.354048   -0.268779    0.152326
H    -2.535970   -1.758579    0.715631   -0.926953    0.954708    0.465897
13
* Frequency(8)  370.4874
C     1.683937    0.263866   -0.206357    0.145308   -0.039701   -0.047184
C     1.455869   -1.060080    0.032793    0.137055   -0.079232    0.030017
N     0.170412   -1.598510    0.226119    0.135763   -0.282533    0.037709
C    -0.870687   -0.750698    0.195225    0.210123   -0.151106   -0.000404
N    -0.639282    0.525001   -0.015902    0.360536   -0.252435    0.033532
C     0.544160    1.193279   -0.240497    0.030355   -0.088415   -0.010255
O    -2.171076   -0.917381    0.336560   -0.096813    0.749248   -0.157890
O     0.403002    2.404294   -0.403870   -0.726173   -0.026635    0.085589
H     2.260424   -1.796522    0.082960    0.208909   -0.006652    0.058283
H     0.035364   -2.611528    0.332868    0.120500   -0.328683   -0.151065
H     2.701643    0.628537   -0.352022    0.179468   -0.114879   -0.036258
H    -1.463758    1.129003    0.004702    0.354048   -0.268779    0.152326
H    -2.477556   -1.818742    0.686271   -0.926953    0.954708    0.465897
13
* Frequency(8)  370.4874
C     1.670726    0.267475   -0.202067    0.145308   -0.039701   -0.047184
C     1.443408   -1.052876    0.030064    0.137055   -0.079232    0.030017
N     0.158069   -1.572821    0.222690    0.135763   -0.282533    0.037709
C    -0.889791   -0.736959    0.195262    0.210123   -0.151106   -0.000404
N    -0.672062    0.547953   -0.018951    0.360536   -0.252435    0.033532
C     0.541400    1.201317   -0.239564    0.030355   -0.088415   -0.010255
O    -2.162273   -0.985504    0.350916   -0.096813    0.749248   -0.157890
O     0.469027    2.406716   -0.411652   -0.726173   -0.026635    0.085589
H     2.241430   -1.795917    0.077661    0.208909   -0.006652    0.058283
H     0.024408   -2.581643    0.346603    0.120500   -0.328683   -0.151065
H     2.685326    0.638982   -0.348726    0.179468   -0.114879   -0.036258
H    -1.495949    1.153441   -0.009148    0.354048   -0.268779    0.152326
H    -2.393276   -1.905546    0.643911   -0.926953    0.954708    0.465897
13
* Frequency(8)  370.4874
C     1.654891    0.271802   -0.196925    0.145308   -0.039701   -0.047184
C     1.428472   -1.044242    0.026793    0.137055   -0.079232    0.030017
N     0.143274   -1.542033    0.218581    0.135763   -0.282533    0.037709
C    -0.912689   -0.720492    0.195305    0.210123   -0.151106   -0.000404
N    -0.711351    0.575462   -0.022605    0.360536   -0.252435    0.033532
C     0.538093    1.210952   -0.238447    0.030355   -0.088415   -0.010255
O    -2.151723   -1.067152    0.368122   -0.096813    0.749248   -0.157890
O     0.548160    2.409618   -0.420979   -0.726173   -0.026635    0.085589
H     2.218664   -1.795192    0.071309    0.208909   -0.006652    0.058283
H     0.011277   -2.545825    0.363065    0.120500   -0.328683   -0.151065
H     2.665769    0.651501   -0.344775    0.179468   -0.114879   -0.036258
H    -1.534531    1.182731   -0.025747    0.354048   -0.268779    0.152326
H    -2.292262   -2.009584    0.593141   -0.926953    0.954708    0.465897
13
* Frequency(8)  370.4874
C     1.638149    0.276376   -0.191489    0.145308   -0.039701   -0.047184
C     1.412681   -1.035113    0.023334    0.137055   -0.079232    0.030017
N     0.127632   -1.509481    0.214237    0.135763   -0.282533    0.037709
C    -0.936899   -0.703083    0.195352    0.210123   -0.151106   -0.000404
N    -0.752891    0.604547   -0.026468    0.360536   -0.252435    0.033532
C     0.534595    1.221139   -0.237265    0.030355   -0.088415   -0.010255
O    -2.140569   -1.153477    0.386313   -0.096813    0.749248   -0.157890
O     0.631827    2.412687   -0.430840   -0.726173   -0.026635    0.085589
H     2.194594   -1.794426    0.064594    0.208909   -0.006652    0.058283
H    -0.002606   -2.507956    0.380471    0.120500   -0.328683   -0.151065
H     2.645091    0.664737   -0.340597    0.179468   -0.114879   -0.036258
H    -1.575323    1.213699   -0.043298    0.354048   -0.268779    0.152326
H    -2.185462   -2.119582    0.539462   -0.926953    0.954708    0.465897
13
* Frequency(8)  370.4874
C     1.622314    0.280702   -0.186347    0.145308   -0.039701   -0.047184
C     1.397746   -1.026479    0.020063    0.137055   -0.079232    0.030017
N     0.112837   -1.478692    0.210127    0.135763   -0.282533    0.037709
C    -0.959797   -0.686616    0.195396    0.210123   -0.151106   -0.000404
N    -0.792180    0.632055   -0.030122    0.360536   -0.252435    0.033532
C     0.531287    1.230774   -0.236148    0.030355   -0.088415   -0.010255
O    -2.130019   -1.235125    0.403519   -0.096813    0.749248   -0.157890
O     0.710961    2.415590   -0.440167   -0.726173   -0.026635    0.085589
H     2.171829   -1.793701    0.058243    0.208909   -0.006652    0.058283
H    -0.015738   -2.472138    0.396933    0.120500   -0.328683   -0.151065
H     2.625534    0.677255   -0.336646    0.179468   -0.114879   -0.036258
H    -1.613905    1.242989   -0.059897    0.354048   -0.268779    0.152326
H    -2.084449   -2.223619    0.488692   -0.926953    0.954708    0.465897
13
* Frequency(8)  370.4874
C     1.609103    0.284312   -0.182057    0.145308   -0.039701   -0.047184
C     1.385284   -1.019275    0.017334    0.137055   -0.079232    0.030017
N     0.100494   -1.453004    0.206699    0.135763   -0.282533    0.037709
C    -0.978901   -0.672877    0.195433    0.210123   -0.151106   -0.000404
N    -0.824960    0.655007   -0.033171    0.360536   -0.252435    0.033532
C     0.528528    1.238813   -0.235215    0.030355   -0.088415   -0.010255
O    -2.121216   -1.303248    0.417875   -0.096813    0.749248   -0.157890
O     0.776986    2.418011   -0.447949   -0.726173   -0.026635    0.085589
H     2.152834   -1.793096    0.052944    0.208909   -0.006652    0.058283
H    -0.026694   -2.442254    0.410668    0.120500   -0.328683   -0.151065
H     2.609216    0.687700   -0.333349    0.179468   -0.114879   -0.036258
H    -1.646096    1.267427   -0.073747    0.354048   -0.268779    0.152326
H    -2.000169   -2.310423    0.446331   -0.926953    0.954708    0.465897
13
* Frequency(8)  370.4874
C     1.599946    0.286814   -0.179084    0.145308   -0.039701   -0.047184
C     1.376648   -1.014282    0.015442    0.137055   -0.079232    0.030017
N     0.091938   -1.435199    0.204322    0.135763   -0.282533    0.037709
C    -0.992143   -0.663355    0.195458    0.210123   -0.151106   -0.000404
N    -0.847680    0.670915   -0.035284    0.360536   -0.252435    0.033532
C     0.526615    1.244384   -0.234569    0.030355   -0.088415   -0.010255
O    -2.115116   -1.350464    0.427825   -0.096813    0.749248   -0.157890
O     0.822747    2.419690   -0.453342   -0.726173   -0.026635    0.085589
H     2.139670   -1.792677    0.049271    0.208909   -0.006652    0.058283
H    -0.034287   -2.421541    0.420188    0.120500   -0.328683   -0.151065
H     2.597907    0.694940   -0.331065    0.179468   -0.114879   -0.036258
H    -1.668407    1.284364   -0.083346    0.354048   -0.268779    0.152326
H    -1.941755   -2.370586    0.416972   -0.926953    0.954708    0.465897
13
* Frequency(8)  370.4874
C     1.595836    0.287937   -0.177749    0.145308   -0.039701   -0.047184
C     1.372771   -1.012041    0.014593    0.137055   -0.079232    0.030017
N     0.088098   -1.427208    0.203256    0.135763   -0.282533    0.037709
C    -0.998086   -0.659081    0.195470    0.210123   -0.151106   -0.000404
N    -0.857878    0.678055   -0.036232    0.360536   -0.252435    0.033532
C     0.525756    1.246885   -0.234279    0.030355   -0.088415   -0.010255
O    -2.112377   -1.371656    0.432290   -0.096813    0.749248   -0.157890
O     0.843286    2.420443   -0.455763   -0.726173   -0.026635    0.085589
H     2.133761   -1.792489    0.047622    0.208909   -0.006652    0.058283
H    -0.037696   -2.412244    0.424460    0.120500   -0.328683   -0.151065
H     2.592831    0.698189   -0.330039    0.179468   -0.114879   -0.036258
H    -1.678421    1.291966   -0.087654    0.354048   -0.268779    0.152326
H    -1.915537   -2.397589    0.403795   -0.926953    0.954708    0.465897
13
* Frequency(8)  370.4874
C     1.597218    0.287559   -0.178198    0.145308   -0.039701   -0.047184
C     1.374075   -1.012795    0.014879    0.137055   -0.079232    0.030017
N     0.089390   -1.429896    0.203615    0.135763   -0.282533    0.037709
C    -0.996087   -0.660519    0.195466    0.210123   -0.151106   -0.000404
N    -0.854447    0.675653   -0.035913    0.360536   -0.252435    0.033532
C     0.526045    1.246044   -0.234377    0.030355   -0.088415   -0.010255
O    -2.113298   -1.364527    0.430788   -0.096813    0.749248   -0.157890
O     0.836377    2.420190   -0.454949   -0.726173   -0.026635    0.085589
H     2.135749   -1.792552    0.048177    0.208909   -0.006652    0.058283
H    -0.036549   -2.415372    0.423023    0.120500   -0.328683   -0.151065
H     2.594538    0.697096   -0.330384    0.179468   -0.114879   -0.036258
H    -1.675052    1.289409   -0.086205    0.354048   -0.268779    0.152326
H    -1.924356   -2.388506    0.408227   -0.926953    0.954708    0.465897
13
* Frequency(8)  370.4874
C     1.603944    0.285722   -0.180382    0.145308   -0.039701   -0.047184
C     1.380418   -1.016462    0.016268    0.137055   -0.079232    0.030017
N     0.095673   -1.442972    0.205360    0.135763   -0.282533    0.037709
C    -0.986362   -0.667512    0.195447    0.210123   -0.151106   -0.000404
N    -0.837761    0.663970   -0.034362    0.360536   -0.252435    0.033532
C     0.527450    1.241952   -0.234851    0.030355   -0.088415   -0.010255
O    -2.117779   -1.329850    0.423481   -0.096813    0.749248   -0.157890
O     0.802769    2.418957   -0.450988   -0.726173   -0.026635    0.085589
H     2.145417   -1.792860    0.050874    0.208909   -0.006652    0.058283
H    -0.030972   -2.430584    0.416031    0.120500   -0.328683   -0.151065
H     2.602844    0.691779   -0.332062    0.179468   -0.114879   -0.036258
H    -1.658666    1.276969   -0.079155    0.354048   -0.268779    0.152326
H    -1.967258   -2.344320    0.429790   -0.926953    0.954708    0.465897
13
* Frequency(8)  370.4874
C     1.615283    0.282624   -0.184064    0.145308   -0.039701   -0.047184
C     1.391113   -1.022644    0.018611    0.137055   -0.079232    0.030017
N     0.106267   -1.465019    0.208302    0.135763   -0.282533    0.037709
C    -0.969965   -0.679304    0.195416    0.210123   -0.151106   -0.000404
N    -0.809627    0.644271   -0.031745    0.360536   -0.252435    0.033532
C     0.529818    1.235053   -0.235651    0.030355   -0.088415   -0.010255
O    -2.125334   -1.271384    0.411160   -0.096813    0.749248   -0.157890
O     0.746103    2.416879   -0.444309   -0.726173   -0.026635    0.085589
H     2.161719   -1.793379    0.055422    0.208909   -0.006652    0.058283
H    -0.021569   -2.456232    0.404243    0.120500   -0.328683   -0.151065
H     2.616849    0.682815   -0.334891    0.179468   -0.114879   -0.036258
H    -1.631038    1.255996   -0.067269    0.354048   -0.268779    0.152326
H    -2.039591   -2.269820    0.466146   -0.926953    0.954708    0.465897
13
* Frequency(8)  370.4874
C     1.630007    0.278601   -0.188845    0.145308   -0.039701   -0.047184
C     1.405001   -1.030673    0.021652    0.137055   -0.079232    0.030017
N     0.120024   -1.493648    0.212123    0.135763   -0.282533    0.037709
C    -0.948673   -0.694615    0.195375    0.210123   -0.151106   -0.000404
N    -0.773094    0.618692   -0.028347    0.360536   -0.252435    0.033532
C     0.532894    1.226094   -0.236691    0.030355   -0.088415   -0.010255
O    -2.135144   -1.195463    0.395161   -0.096813    0.749248   -0.157890
O     0.672520    2.414180   -0.435636   -0.726173   -0.026635    0.085589
H     2.182888   -1.794053    0.061328    0.208909   -0.006652    0.058283
H    -0.009359   -2.489538    0.388936    0.120500   -0.328683   -0.151065
H     2.635034    0.671174   -0.338565    0.179468   -0.114879   -0.036258
H    -1.595163    1.228760   -0.051833    0.354048   -0.268779    0.152326
H    -2.133519   -2.173080    0.513355   -0.926953    0.954708    0.465897
13
* Frequency(8)  370.4874
C     1.646520    0.274089   -0.194207    0.145308   -0.039701   -0.047184
C     1.420577   -1.039677    0.025063    0.137055   -0.079232    0.030017
N     0.135453   -1.525757    0.216409    0.135763   -0.282533    0.037709
C    -0.924794   -0.711788    0.195329    0.210123   -0.151106   -0.000404
N    -0.732121    0.590004   -0.024536    0.360536   -0.252435    0.033532
C     0.536344    1.216046   -0.237856    0.030355   -0.088415   -0.010255
O    -2.146146   -1.110315    0.377217   -0.096813    0.749248   -0.157890
O     0.589994    2.411153   -0.425909   -0.726173   -0.026635    0.085589
H     2.206629   -1.794809    0.067952    0.208909   -0.006652    0.058283
H     0.004335   -2.526891    0.371768    0.120500   -0.328683   -0.151065
H     2.655430    0.658119   -0.342686    0.179468   -0.114879   -0.036258
H    -1.554927    1.198215   -0.034522    0.354048   -0.268779    0.152326
H    -2.238862   -2.064583    0.566301   -0.926953    0.954708    0.465897
