13
* (null), Energy   -1000.0000000
C     1.646520    0.274089   -0.194207    0.025475    0.046234    0.313376
C     1.420577   -1.039677    0.025063    0.018180    0.022394    0.162586
N     0.135453   -1.525757    0.216409   -0.005568   -0.011806   -0.084982
C    -0.924794   -0.711788    0.195329    0.000549    0.002030    0.016580
N    -0.732121    0.590004   -0.024536    0.009620    0.013376    0.089350
C     0.536344    1.216046   -0.237856   -0.039661   -0.066392   -0.439174
O    -2.146146   -1.110315    0.377217   -0.003826   -0.000485   -0.004156
O     0.589994    2.411153   -0.425909    0.010872    0.020287    0.121031
H     2.206629   -1.794809    0.067952   -0.092407   -0.163183   -1.078216
H     0.004335   -2.526891    0.371768    0.026106    0.031517    0.215335
H     2.655430    0.658119   -0.342686   -0.138561   -0.229821   -1.516303
H    -1.554927    1.198215   -0.034522   -0.013557   -0.022033   -0.154157
H    -2.238862   -2.064583    0.566301   -0.003825   -0.003443   -0.018325
13
* Frequency(19)  840.6917
C     1.649415    0.279343   -0.158594    0.025475    0.046234    0.313376
C     1.422643   -1.037132    0.043541    0.018180    0.022394    0.162586
N     0.134820   -1.527098    0.206751   -0.005568   -0.011806   -0.084982
C    -0.924732   -0.711557    0.197213    0.000549    0.002030    0.016580
N    -0.731028    0.591524   -0.014382    0.009620    0.013376    0.089350
C     0.531837    1.208501   -0.287766   -0.039661   -0.066392   -0.439174
O    -2.146581   -1.110370    0.376745   -0.003826   -0.000485   -0.004156
O     0.591229    2.413458   -0.412155    0.010872    0.020287    0.121031
H     2.196128   -1.813354   -0.054582   -0.092407   -0.163183   -1.078216
H     0.007302   -2.523309    0.396240    0.026106    0.031517    0.215335
H     2.639683    0.632001   -0.515006   -0.138561   -0.229821   -1.516303
H    -1.556468    1.195711   -0.052041   -0.013557   -0.022033   -0.154157
H    -2.239297   -2.064974    0.564219   -0.003825   -0.003443   -0.018325
13
* Frequency(19)  840.6917
C     1.651996    0.284028   -0.126839    0.025475    0.046234    0.313376
C     1.424485   -1.034863    0.060015    0.018180    0.022394    0.162586
N     0.134256   -1.528295    0.198140   -0.005568   -0.011806   -0.084982
C    -0.924676   -0.711351    0.198893    0.000549    0.002030    0.016580
N    -0.730053    0.592880   -0.005328    0.009620    0.013376    0.089350
C     0.527818    1.201773   -0.332267   -0.039661   -0.066392   -0.439174
O    -2.146969   -1.110419    0.376324   -0.003826   -0.000485   -0.004156
O     0.592331    2.415514   -0.399891    0.010872    0.020287    0.121031
H     2.186764   -1.829889   -0.163837   -0.092407   -0.163183   -1.078216
H     0.009947   -2.520115    0.418060    0.026106    0.031517    0.215335
H     2.625643    0.608713   -0.668652   -0.138561   -0.229821   -1.516303
H    -1.557841    1.193478   -0.067662   -0.013557   -0.022033   -0.154157
H    -2.239685   -2.065323    0.562362   -0.003825   -0.003443   -0.018325
13
* Frequency(19)  840.6917
C     1.653984    0.287636   -0.102385    0.025475    0.046234    0.313376
C     1.425904   -1.033116    0.072703    0.018180    0.022394    0.162586
N     0.133821   -1.529216    0.191508   -0.005568   -0.011806   -0.084982
C    -0.924633   -0.711193    0.200187    0.000549    0.002030    0.016580
N    -0.729302    0.593924    0.001644    0.009620    0.013376    0.089350
C     0.524723    1.196592   -0.366538   -0.039661   -0.066392   -0.439174
O    -2.147267   -1.110457    0.376000   -0.003826   -0.000485   -0.004156
O     0.593179    2.417097   -0.390446    0.010872    0.020287    0.121031
H     2.179553   -1.842623   -0.247974   -0.092407   -0.163183   -1.078216
H     0.011984   -2.517656    0.434863    0.026106    0.031517    0.215335
H     2.614830    0.590779   -0.786975   -0.138561   -0.229821   -1.516303
H    -1.558899    1.191759   -0.079691   -0.013557   -0.022033   -0.154157
H    -2.239983   -2.065592    0.560932   -0.003825   -0.003443   -0.018325
13
* Frequency(19)  840.6917
C     1.655163    0.289776   -0.087882    0.025475    0.046234    0.313376
C     1.426745   -1.032079    0.080227    0.018180    0.022394    0.162586
N     0.133564   -1.529762    0.187575   -0.005568   -0.011806   -0.084982
C    -0.924608   -0.711099    0.200954    0.000549    0.002030    0.016580
N    -0.728857    0.594543    0.005779    0.009620    0.013376    0.089350
C     0.522887    1.193519   -0.386863   -0.039661   -0.066392   -0.439174
O    -2.147444   -1.110479    0.375807   -0.003826   -0.000485   -0.004156
O     0.593683    2.418036   -0.384845    0.010872    0.020287    0.121031
H     2.175276   -1.850176   -0.297876   -0.092407   -0.163183   -1.078216
H     0.013193   -2.516197    0.444829    0.026106    0.031517    0.215335
H     2.608418    0.580143   -0.857153   -0.138561   -0.229821   -1.516303
H    -1.559527    1.190739   -0.086826   -0.013557   -0.022033   -0.154157
H    -2.240160   -2.065751    0.560084   -0.003825   -0.003443   -0.018325
13
* Frequency(19)  840.6917
C     1.655406    0.290215   -0.084900    0.025475    0.046234    0.313376
C     1.426918   -1.031866    0.081774    0.018180    0.022394    0.162586
N     0.133511   -1.529875    0.186767   -0.005568   -0.011806   -0.084982
C    -0.924603   -0.711079    0.201112    0.000549    0.002030    0.016580
N    -0.728766    0.594670    0.006629    0.009620    0.013376    0.089350
C     0.522510    1.192888   -0.391042   -0.039661   -0.066392   -0.439174
O    -2.147481   -1.110484    0.375768   -0.003826   -0.000485   -0.004156
O     0.593786    2.418229   -0.383693    0.010872    0.020287    0.121031
H     2.174397   -1.851728   -0.308135   -0.092407   -0.163183   -1.078216
H     0.013441   -2.515897    0.446878    0.026106    0.031517    0.215335
H     2.607099    0.577956   -0.871579   -0.138561   -0.229821   -1.516303
H    -1.559656    1.190530   -0.088293   -0.013557   -0.022033   -0.154157
H    -2.240197   -2.065784    0.559910   -0.003825   -0.003443   -0.018325
13
* Frequency(19)  840.6917
C     1.654685    0.288908   -0.093764    0.025475    0.046234    0.313376
C     1.426404   -1.032499    0.077176    0.018180    0.022394    0.162586
N     0.133668   -1.529541    0.189170   -0.005568   -0.011806   -0.084982
C    -0.924618   -0.711137    0.200643    0.000549    0.002030    0.016580
N    -0.729038    0.594292    0.004102    0.009620    0.013376    0.089350
C     0.523632    1.194766   -0.378620   -0.039661   -0.066392   -0.439174
O    -2.147373   -1.110470    0.375885   -0.003826   -0.000485   -0.004156
O     0.593478    2.417655   -0.387116    0.010872    0.020287    0.121031
H     2.177011   -1.847113   -0.277639   -0.092407   -0.163183   -1.078216
H     0.012703   -2.516789    0.440787    0.026106    0.031517    0.215335
H     2.611018    0.584456   -0.828693   -0.138561   -0.229821   -1.516303
H    -1.559272    1.191153   -0.083933   -0.013557   -0.022033   -0.154157
H    -2.240089   -2.065686    0.560428   -0.003825   -0.003443   -0.018325
13
* Frequency(19)  840.6917
C     1.653080    0.285994   -0.113512    0.025475    0.046234    0.313376
C     1.425258   -1.033911    0.066930    0.018180    0.022394    0.162586
N     0.134019   -1.528797    0.194526   -0.005568   -0.011806   -0.084982
C    -0.924653   -0.711265    0.199598    0.000549    0.002030    0.016580
N    -0.729644    0.593449   -0.001529    0.009620    0.013376    0.089350
C     0.526131    1.198949   -0.350945   -0.039661   -0.066392   -0.439174
O    -2.147131   -1.110440    0.376147   -0.003826   -0.000485   -0.004156
O     0.592793    2.416377   -0.394743    0.010872    0.020287    0.121031
H     2.182834   -1.836829   -0.209693   -0.092407   -0.163183   -1.078216
H     0.011058   -2.518775    0.427217    0.026106    0.031517    0.215335
H     2.619750    0.598939   -0.733139   -0.138561   -0.229821   -1.516303
H    -1.558418    1.192541   -0.074218   -0.013557   -0.022033   -0.154157
H    -2.239847   -2.065469    0.561583   -0.003825   -0.003443   -0.018325
13
* Frequency(19)  840.6917
C     1.650764    0.281791   -0.142004    0.025475    0.046234    0.313376
C     1.423605   -1.035947    0.052147    0.018180    0.022394    0.162586
N     0.134525   -1.527723    0.202252   -0.005568   -0.011806   -0.084982
C    -0.924703   -0.711449    0.198091    0.000549    0.002030    0.016580
N    -0.730519    0.592232   -0.009652    0.009620    0.013376    0.089350
C     0.529737    1.204986   -0.311014   -0.039661   -0.066392   -0.439174
O    -2.146784   -1.110395    0.376525   -0.003826   -0.000485   -0.004156
O     0.591805    2.414532   -0.405748    0.010872    0.020287    0.121031
H     2.191236   -1.821992   -0.111659   -0.092407   -0.163183   -1.078216
H     0.008684   -2.521641    0.407639    0.026106    0.031517    0.215335
H     2.632348    0.619835   -0.595274   -0.138561   -0.229821   -1.516303
H    -1.557185    1.194545   -0.060202   -0.013557   -0.022033   -0.154157
H    -2.239500   -2.065156    0.563249   -0.003825   -0.003443   -0.018325
13
* Frequency(19)  840.6917
C     1.647988    0.276752   -0.176154    0.025475    0.046234    0.313376
C     1.421624   -1.038387    0.034430    0.018180    0.022394    0.162586
N     0.135132   -1.526437    0.211513   -0.005568   -0.011806   -0.084982
C    -0.924762   -0.711671    0.196284    0.000549    0.002030    0.016580
N    -0.731567    0.590775   -0.019389    0.009620    0.013376    0.089350
C     0.534059    1.212221   -0.263156   -0.039661   -0.066392   -0.439174
O    -2.146367   -1.110343    0.376978   -0.003826   -0.000485   -0.004156
O     0.590620    2.412322   -0.418937    0.010872    0.020287    0.121031
H     2.201306   -1.804210    0.005838   -0.092407   -0.163183   -1.078216
H     0.005839   -2.525075    0.384173    0.026106    0.031517    0.215335
H     2.647448    0.644879   -0.430037   -0.138561   -0.229821   -1.516303
H    -1.555708    1.196946   -0.043403   -0.013557   -0.022033   -0.154157
H    -2.239083   -2.064781    0.565246   -0.003825   -0.003443   -0.018325
13
* Frequency(19)  840.6917
C     1.645053    0.271425   -0.212260    0.025475    0.046234    0.313376
C     1.419529   -1.040967    0.015697    0.018180    0.022394    0.162586
N     0.135774   -1.525077    0.221305   -0.005568   -0.011806   -0.084982
C    -0.924826   -0.711904    0.194374    0.000549    0.002030    0.016580
N    -0.732675    0.589234   -0.029684    0.009620    0.013376    0.089350
C     0.538629    1.219870   -0.212556   -0.039661   -0.066392   -0.439174
O    -2.145926   -1.110287    0.377457   -0.003826   -0.000485   -0.004156
O     0.589368    2.409984   -0.432882    0.010872    0.020287    0.121031
H     2.211953   -1.785408    0.130066   -0.092407   -0.163183   -1.078216
H     0.002831   -2.528706    0.359363    0.026106    0.031517    0.215335
H     2.663412    0.671358   -0.255335   -0.138561   -0.229821   -1.516303
H    -1.554146    1.199484   -0.025642   -0.013557   -0.022033   -0.154157
H    -2.238642   -2.064384    0.567357   -0.003825   -0.003443   -0.018325
13
* Frequency(19)  840.6917
C     1.642276    0.266387   -0.246410    0.025475    0.046234    0.313376
C     1.417548   -1.043408   -0.002020    0.018180    0.022394    0.162586
N     0.136381   -1.523790    0.230565   -0.005568   -0.011806   -0.084982
C    -0.924885   -0.712126    0.192567    0.000549    0.002030    0.016580
N    -0.733724    0.587776   -0.039420    0.009620    0.013376    0.089350
C     0.542951    1.227105   -0.164698   -0.039661   -0.066392   -0.439174
O    -2.145509   -1.110234    0.377910   -0.003826   -0.000485   -0.004156
O     0.588183    2.407773   -0.446071    0.010872    0.020287    0.121031
H     2.222023   -1.767626    0.247563   -0.092407   -0.163183   -1.078216
H    -0.000013   -2.532141    0.335897    0.026106    0.031517    0.215335
H     2.678512    0.696403   -0.090098   -0.138561   -0.229821   -1.516303
H    -1.552669    1.201885   -0.008843   -0.013557   -0.022033   -0.154157
H    -2.238225   -2.064009    0.569354   -0.003825   -0.003443   -0.018325
13
* Frequency(19)  840.6917
C     1.639960    0.262183   -0.274903    0.025475    0.046234    0.313376
C     1.415895   -1.045444   -0.016803    0.018180    0.022394    0.162586
N     0.136887   -1.522717    0.238292   -0.005568   -0.011806   -0.084982
C    -0.924935   -0.712310    0.191059    0.000549    0.002030    0.016580
N    -0.734598    0.586560   -0.047544    0.009620    0.013376    0.089350
C     0.546557    1.233142   -0.124767   -0.039661   -0.066392   -0.439174
O    -2.145161   -1.110190    0.378288   -0.003826   -0.000485   -0.004156
O     0.587194    2.405929   -0.457075    0.010872    0.020287    0.121031
H     2.230424   -1.752789    0.345596   -0.092407   -0.163183   -1.078216
H    -0.002387   -2.535006    0.316318    0.026106    0.031517    0.215335
H     2.691110    0.717298    0.047767   -0.138561   -0.229821   -1.516303
H    -1.551436    1.203889    0.005173   -0.013557   -0.022033   -0.154157
H    -2.237877   -2.063696    0.571020   -0.003825   -0.003443   -0.018325
13
* Frequency(19)  840.6917
C     1.638355    0.259270   -0.294651    0.025475    0.046234    0.313376
C     1.414750   -1.046855   -0.027049    0.018180    0.022394    0.162586
N     0.137238   -1.521973    0.243647   -0.005568   -0.011806   -0.084982
C    -0.924970   -0.712438    0.190015    0.000549    0.002030    0.016580
N    -0.735204    0.585717   -0.053175    0.009620    0.013376    0.089350
C     0.549056    1.237326   -0.097092   -0.039661   -0.066392   -0.439174
O    -2.144920   -1.110159    0.378549   -0.003826   -0.000485   -0.004156
O     0.586509    2.404650   -0.464702    0.010872    0.020287    0.121031
H     2.236248   -1.742505    0.413542   -0.092407   -0.163183   -1.078216
H    -0.004032   -2.536992    0.302749    0.026106    0.031517    0.215335
H     2.699842    0.731781    0.143321   -0.138561   -0.229821   -1.516303
H    -1.550582    1.205277    0.014888   -0.013557   -0.022033   -0.154157
H    -2.237636   -2.063479    0.572175   -0.003825   -0.003443   -0.018325
13
* Frequency(19)  840.6917
C     1.637634    0.257962   -0.303514    0.025475    0.046234    0.313376
C     1.414235   -1.047488   -0.031647    0.018180    0.022394    0.162586
N     0.137395   -1.521639    0.246051   -0.005568   -0.011806   -0.084982
C    -0.924985   -0.712496    0.189546    0.000549    0.002030    0.016580
N    -0.735477    0.585338   -0.055702    0.009620    0.013376    0.089350
C     0.550178    1.239204   -0.084670   -0.039661   -0.066392   -0.439174
O    -2.144811   -1.110145    0.378667   -0.003826   -0.000485   -0.004156
O     0.586202    2.404076   -0.468125    0.010872    0.020287    0.121031
H     2.238861   -1.737890    0.444039   -0.092407   -0.163183   -1.078216
H    -0.004770   -2.537884    0.296658    0.026106    0.031517    0.215335
H     2.703761    0.738281    0.186208   -0.138561   -0.229821   -1.516303
H    -1.550198    1.205900    0.019248   -0.013557   -0.022033   -0.154157
H    -2.237528   -2.063382    0.572693   -0.003825   -0.003443   -0.018325
13
* Frequency(19)  840.6917
C     1.637877    0.258402   -0.300533    0.025475    0.046234    0.313376
C     1.414408   -1.047275   -0.030100    0.018180    0.022394    0.162586
N     0.137342   -1.521751    0.245242   -0.005568   -0.011806   -0.084982
C    -0.924980   -0.712476    0.189703    0.000549    0.002030    0.016580
N    -0.735385    0.585466   -0.054852    0.009620    0.013376    0.089350
C     0.549801    1.238572   -0.088849   -0.039661   -0.066392   -0.439174
O    -2.144848   -1.110150    0.378627   -0.003826   -0.000485   -0.004156
O     0.586305    2.404270   -0.466974    0.010872    0.020287    0.121031
H     2.237982   -1.739442    0.433780   -0.092407   -0.163183   -1.078216
H    -0.004522   -2.537584    0.298707    0.026106    0.031517    0.215335
H     2.702442    0.736095    0.171781   -0.138561   -0.229821   -1.516303
H    -1.550327    1.205691    0.017781   -0.013557   -0.022033   -0.154157
H    -2.237565   -2.063414    0.572519   -0.003825   -0.003443   -0.018325
13
* Frequency(19)  840.6917
C     1.639056    0.260542   -0.286029    0.025475    0.046234    0.313376
C     1.415250   -1.046239   -0.022576    0.018180    0.022394    0.162586
N     0.137085   -1.522298    0.241309   -0.005568   -0.011806   -0.084982
C    -0.924955   -0.712382    0.190471    0.000549    0.002030    0.016580
N    -0.734940    0.586085   -0.050717    0.009620    0.013376    0.089350
C     0.547965    1.235499   -0.109174   -0.039661   -0.066392   -0.439174
O    -2.145025   -1.110173    0.378435   -0.003826   -0.000485   -0.004156
O     0.586808    2.405208   -0.461372    0.010872    0.020287    0.121031
H     2.233705   -1.746995    0.383878   -0.092407   -0.163183   -1.078216
H    -0.003314   -2.536125    0.308673    0.026106    0.031517    0.215335
H     2.696029    0.725458    0.101603   -0.138561   -0.229821   -1.516303
H    -1.550955    1.204671    0.010647   -0.013557   -0.022033   -0.154157
H    -2.237742   -2.063574    0.571671   -0.003825   -0.003443   -0.018325
13
* Frequency(19)  840.6917
C     1.641044    0.264150   -0.261575    0.025475    0.046234    0.313376
C     1.416668   -1.044491   -0.009888    0.018180    0.022394    0.162586
N     0.136650   -1.523219    0.234678   -0.005568   -0.011806   -0.084982
C    -0.924912   -0.712224    0.191764    0.000549    0.002030    0.016580
N    -0.734189    0.587129   -0.043744    0.009620    0.013376    0.089350
C     0.544870    1.230318   -0.143445   -0.039661   -0.066392   -0.439174
O    -2.145324   -1.110210    0.378111   -0.003826   -0.000485   -0.004156
O     0.587657    2.406792   -0.451928    0.010872    0.020287    0.121031
H     2.226495   -1.759729    0.299741   -0.092407   -0.163183   -1.078216
H    -0.001277   -2.533666    0.325476    0.026106    0.031517    0.215335
H     2.685217    0.707524   -0.016720   -0.138561   -0.229821   -1.516303
H    -1.552013    1.202952   -0.001383   -0.013557   -0.022033   -0.154157
H    -2.238040   -2.063842    0.570241   -0.003825   -0.003443   -0.018325
13
* Frequency(19)  840.6917
C     1.643625    0.268835   -0.229821    0.025475    0.046234    0.313376
C     1.418511   -1.042222    0.006586    0.018180    0.022394    0.162586
N     0.136086   -1.524415    0.226067   -0.005568   -0.011806   -0.084982
C    -0.924856   -0.712018    0.193445    0.000549    0.002030    0.016580
N    -0.733214    0.588484   -0.034691    0.009620    0.013376    0.089350
C     0.540851    1.223591   -0.187946   -0.039661   -0.066392   -0.439174
O    -2.145711   -1.110259    0.377690   -0.003826   -0.000485   -0.004156
O     0.588758    2.408847   -0.439664    0.010872    0.020287    0.121031
H     2.217131   -1.776264    0.190486   -0.092407   -0.163183   -1.078216
H     0.001369   -2.530472    0.347296    0.026106    0.031517    0.215335
H     2.671177    0.684237   -0.170366   -0.138561   -0.229821   -1.516303
H    -1.553386    1.200719   -0.017003   -0.013557   -0.022033   -0.154157
H    -2.238428   -2.064191    0.568384   -0.003825   -0.003443   -0.018325
13
* Frequency(19)  840.6917
C     1.646520    0.274089   -0.194207    0.025475    0.046234    0.313376
C     1.420577   -1.039677    0.025063    0.018180    0.022394    0.162586
N     0.135453   -1.525757    0.216409   -0.005568   -0.011806   -0.084982
C    -0.924794   -0.711788    0.195329    0.000549    0.002030    0.016580
N    -0.732121    0.590004   -0.024536    0.009620    0.013376    0.089350
C     0.536344    1.216046   -0.237856   -0.039661   -0.066392   -0.439174
O    -2.146146   -1.110315    0.377217   -0.003826   -0.000485   -0.004156
O     0.589994    2.411153   -0.425909    0.010872    0.020287    0.121031
H     2.206629   -1.794809    0.067952   -0.092407   -0.163183   -1.078216
H     0.004335   -2.526891    0.371768    0.026106    0.031517    0.215335
H     2.655430    0.658119   -0.342686   -0.138561   -0.229821   -1.516303
H    -1.554927    1.198215   -0.034522   -0.013557   -0.022033   -0.154157
H    -2.238862   -2.064583    0.566301   -0.003825   -0.003443   -0.018325
