13
* (null), Energy   -1000.0000000
C     1.393781    0.533776   -0.062691   -0.124974   -0.504883    0.089179
C     1.168148   -0.779758    0.160441    0.215385    0.522510   -0.100961
N    -0.116197   -1.262094    0.357179   -0.374059    0.196783    0.006235
C    -1.173993   -0.446979    0.334824    0.542753   -0.819986    0.073378
N    -0.982141    0.854104    0.116669   -0.154840    0.295381   -0.030440
C     0.285100    1.476626   -0.101181    0.308054    0.024851   -0.033131
O    -2.392774   -0.849779    0.515859   -0.139464    0.077382    0.001727
O     0.338858    2.672655   -0.290012   -0.072059    0.005410    0.006175
H     1.953348   -1.535224    0.201378   -0.427438   -0.017227    0.044388
H    -0.254993   -2.258813    0.525028   -0.462637    0.227218    0.010330
H     2.401547    0.916834   -0.219517   -0.537834    0.352771   -0.004059
H    -1.805505    1.460126    0.102516    0.048129    0.597389   -0.098566
H    -2.476740   -1.809302    0.672136    0.871339   -0.048707   -0.080339
13
* Frequency(30) 1580.0256
C     1.379579    0.476398   -0.052556   -0.124974   -0.504883    0.089179
C     1.192626   -0.720378    0.148967    0.215385    0.522510   -0.100961
N    -0.158707   -1.239731    0.357888   -0.374059    0.196783    0.006235
C    -1.112312   -0.540166    0.343163    0.542753   -0.819986    0.073378
N    -0.999738    0.887672    0.113210   -0.154840    0.295381   -0.030440
C     0.320109    1.479450   -0.104947    0.308054    0.024851   -0.033131
O    -2.408624   -0.840985    0.516055   -0.139464    0.077382    0.001727
O     0.330669    2.673269   -0.289310   -0.072059    0.005410    0.006175
H     1.904772   -1.537182    0.206422   -0.427438   -0.017227    0.044388
H    -0.307569   -2.232991    0.526202   -0.462637    0.227218    0.010330
H     2.340424    0.956924   -0.219978   -0.537834    0.352771   -0.004059
H    -1.800035    1.528017    0.091314    0.048129    0.597389   -0.098566
H    -2.377717   -1.814837    0.663006    0.871339   -0.048707   -0.080339
13
* Frequency(30) 1580.0256
C     1.366915    0.425239   -0.043519   -0.124974   -0.504883    0.089179
C     1.214451   -0.667432    0.138737    0.215385    0.522510   -0.100961
N    -0.196610   -1.219791    0.358520   -0.374059    0.196783    0.006235
C    -1.057315   -0.623255    0.350598    0.542753   -0.819986    0.073378
N    -1.015428    0.917603    0.110125   -0.154840    0.295381   -0.030440
C     0.351324    1.481968   -0.108304    0.308054    0.024851   -0.033131
O    -2.422756   -0.833144    0.516230   -0.139464    0.077382    0.001727
O     0.323367    2.673818   -0.288685   -0.072059    0.005410    0.006175
H     1.861460   -1.538927    0.210920   -0.427438   -0.017227    0.044388
H    -0.354448   -2.209967    0.527249   -0.462637    0.227218    0.010330
H     2.285926    0.992670   -0.220389   -0.537834    0.352771   -0.004059
H    -1.795158    1.588550    0.081327    0.048129    0.597389   -0.098566
H    -2.289424   -1.819772    0.654865    0.871339   -0.048707   -0.080339
13
* Frequency(30) 1580.0256
C     1.357163    0.385841   -0.036560   -0.124974   -0.504883    0.089179
C     1.231258   -0.626659    0.130859    0.215385    0.522510   -0.100961
N    -0.225799   -1.204435    0.359006   -0.374059    0.196783    0.006235
C    -1.014962   -0.687242    0.356324    0.542753   -0.819986    0.073378
N    -1.027510    0.940653    0.107750   -0.154840    0.295381   -0.030440
C     0.375362    1.483907   -0.110889    0.308054    0.024851   -0.033131
O    -2.433638   -0.827106    0.516365   -0.139464    0.077382    0.001727
O     0.317744    2.674240   -0.288203   -0.072059    0.005410    0.006175
H     1.828106   -1.540272    0.214384   -0.427438   -0.017227    0.044388
H    -0.390550   -2.192237    0.528055   -0.462637    0.227218    0.010330
H     2.243957    1.020198   -0.220706   -0.537834    0.352771   -0.004059
H    -1.791403    1.635166    0.073635    0.048129    0.597389   -0.098566
H    -2.221430   -1.823573    0.648596    0.871339   -0.048707   -0.080339
13
* Frequency(30) 1580.0256
C     1.351379    0.362474   -0.032433   -0.124974   -0.504883    0.089179
C     1.241226   -0.602476    0.126186    0.215385    0.522510   -0.100961
N    -0.243111   -1.195327    0.359295   -0.374059    0.196783    0.006235
C    -0.989842   -0.725192    0.359720    0.542753   -0.819986    0.073378
N    -1.034677    0.954323    0.106341   -0.154840    0.295381   -0.030440
C     0.389620    1.485057   -0.112422    0.308054    0.024851   -0.033131
O    -2.440093   -0.823525    0.516445   -0.139464    0.077382    0.001727
O     0.314409    2.674490   -0.287917   -0.072059    0.005410    0.006175
H     1.808323   -1.541069    0.216438   -0.427438   -0.017227    0.044388
H    -0.411961   -2.181721    0.528533   -0.462637    0.227218    0.010330
H     2.219065    1.036525   -0.220894   -0.537834    0.352771   -0.004059
H    -1.789175    1.662815    0.069073    0.048129    0.597389   -0.098566
H    -2.181103   -1.825827    0.644878    0.871339   -0.048707   -0.080339
13
* Frequency(30) 1580.0256
C     1.350190    0.357670   -0.031584   -0.124974   -0.504883    0.089179
C     1.243276   -0.597505    0.125225    0.215385    0.522510   -0.100961
N    -0.246670   -1.193455    0.359354   -0.374059    0.196783    0.006235
C    -0.984678   -0.732994    0.360419    0.542753   -0.819986    0.073378
N    -1.036150    0.957134    0.106051   -0.154840    0.295381   -0.030440
C     0.392551    1.485294   -0.112738    0.308054    0.024851   -0.033131
O    -2.441420   -0.822788    0.516461   -0.139464    0.077382    0.001727
O     0.313724    2.674542   -0.287858   -0.072059    0.005410    0.006175
H     1.804256   -1.541233    0.216860   -0.427438   -0.017227    0.044388
H    -0.416363   -2.179559    0.528631   -0.462637    0.227218    0.010330
H     2.213947    1.039882   -0.220932   -0.537834    0.352771   -0.004059
H    -1.788717    1.668498    0.068136    0.048129    0.597389   -0.098566
H    -2.172813   -1.826291    0.644114    0.871339   -0.048707   -0.080339
13
* Frequency(30) 1580.0256
C     1.353725    0.371950   -0.034107   -0.124974   -0.504883    0.089179
C     1.237184   -0.612283    0.128081    0.215385    0.522510   -0.100961
N    -0.236091   -1.199021    0.359178   -0.374059    0.196783    0.006235
C    -1.000029   -0.709801    0.358343    0.542753   -0.819986    0.073378
N    -1.031770    0.948779    0.106912   -0.154840    0.295381   -0.030440
C     0.383838    1.484591   -0.111801    0.308054    0.024851   -0.033131
O    -2.437475   -0.824977    0.516412   -0.139464    0.077382    0.001727
O     0.315762    2.674389   -0.288033   -0.072059    0.005410    0.006175
H     1.816346   -1.540746    0.215605   -0.427438   -0.017227    0.044388
H    -0.403278   -2.185985    0.528339   -0.462637    0.227218    0.010330
H     2.229160    1.029904   -0.220818   -0.537834    0.352771   -0.004059
H    -1.790079    1.651602    0.070923    0.048129    0.597389   -0.098566
H    -2.197458   -1.824913    0.646386    0.871339   -0.048707   -0.080339
13
* Frequency(30) 1580.0256
C     1.361600    0.403767   -0.039727   -0.124974   -0.504883    0.089179
C     1.223611   -0.645210    0.134443    0.215385    0.522510   -0.100961
N    -0.212518   -1.211422    0.358785   -0.374059    0.196783    0.006235
C    -1.034232   -0.658128    0.353719    0.542753   -0.819986    0.073378
N    -1.022013    0.930165    0.108831   -0.154840    0.295381   -0.030440
C     0.364425    1.483025   -0.109713    0.308054    0.024851   -0.033131
O    -2.428687   -0.829853    0.516304   -0.139464    0.077382    0.001727
O     0.320303    2.674048   -0.288422   -0.072059    0.005410    0.006175
H     1.843282   -1.539660    0.212808   -0.427438   -0.017227    0.044388
H    -0.374124   -2.200304    0.527688   -0.462637    0.227218    0.010330
H     2.263052    1.007673   -0.220562   -0.537834    0.352771   -0.004059
H    -1.793112    1.613956    0.077135    0.048129    0.597389   -0.098566
H    -2.252367   -1.821844    0.651449    0.871339   -0.048707   -0.080339
13
* Frequency(30) 1580.0256
C     1.372963    0.449671   -0.047835   -0.124974   -0.504883    0.089179
C     1.204027   -0.692718    0.143623    0.215385    0.522510   -0.100961
N    -0.178508   -1.229313    0.358218   -0.374059    0.196783    0.006235
C    -1.083580   -0.583574    0.347047    0.542753   -0.819986    0.073378
N    -1.007934    0.903309    0.111598   -0.154840    0.295381   -0.030440
C     0.336416    1.480765   -0.106700    0.308054    0.024851   -0.033131
O    -2.416006   -0.836889    0.516147   -0.139464    0.077382    0.001727
O     0.326854    2.673556   -0.288983   -0.072059    0.005410    0.006175
H     1.882145   -1.538094    0.208772   -0.427438   -0.017227    0.044388
H    -0.332060   -2.220963    0.526749   -0.462637    0.227218    0.010330
H     2.311953    0.975599   -0.220193   -0.537834    0.352771   -0.004059
H    -1.797488    1.559640    0.086097    0.048129    0.597389   -0.098566
H    -2.331591   -1.817415    0.658753    0.871339   -0.048707   -0.080339
13
* Frequency(30) 1580.0256
C     1.386582    0.504690   -0.057553   -0.124974   -0.504883    0.089179
C     1.180556   -0.749658    0.154625    0.215385    0.522510   -0.100961
N    -0.137746   -1.250758    0.357539   -0.374059    0.196783    0.006235
C    -1.142726   -0.494217    0.339051    0.542753   -0.819986    0.073378
N    -0.991061    0.871120    0.114915   -0.154840    0.295381   -0.030440
C     0.302846    1.478057   -0.103090    0.308054    0.024851   -0.033131
O    -2.400809   -0.845322    0.515959   -0.139464    0.077382    0.001727
O     0.334707    2.672966   -0.289656   -0.072059    0.005410    0.006175
H     1.928724   -1.536216    0.203935   -0.427438   -0.017227    0.044388
H    -0.281645   -2.245724    0.525623   -0.462637    0.227218    0.010330
H     2.370563    0.937156   -0.219750   -0.537834    0.352771   -0.004059
H    -1.802732    1.494541    0.096838    0.048129    0.597389   -0.098566
H    -2.426544   -1.812107    0.667508    0.871339   -0.048707   -0.080339
13
* Frequency(30) 1580.0256
C     1.400981    0.562861   -0.067828   -0.124974   -0.504883    0.089179
C     1.155740   -0.809859    0.166257    0.215385    0.522510   -0.100961
N    -0.094648   -1.273430    0.356820   -0.374059    0.196783    0.006235
C    -1.205260   -0.399741    0.330597    0.542753   -0.819986    0.073378
N    -0.973221    0.837087    0.118422   -0.154840    0.295381   -0.030440
C     0.267354    1.475194   -0.099273    0.308054    0.024851   -0.033131
O    -2.384740   -0.854237    0.515760   -0.139464    0.077382    0.001727
O     0.343009    2.672343   -0.290368   -0.072059    0.005410    0.006175
H     1.977972   -1.534231    0.198821   -0.427438   -0.017227    0.044388
H    -0.228342   -2.271903    0.524433   -0.462637    0.227218    0.010330
H     2.432530    0.896511   -0.219283   -0.537834    0.352771   -0.004059
H    -1.808277    1.425712    0.108194    0.048129    0.597389   -0.098566
H    -2.526936   -1.806496    0.676764    0.871339   -0.048707   -0.080339
13
* Frequency(30) 1580.0256
C     1.414600    0.617880   -0.077546   -0.124974   -0.504883    0.089179
C     1.132269   -0.866799    0.177259    0.215385    0.522510   -0.100961
N    -0.053885   -1.294874    0.356141   -0.374059    0.196783    0.006235
C    -1.264405   -0.310384    0.322601    0.542753   -0.819986    0.073378
N    -0.956347    0.804899    0.121740   -0.154840    0.295381   -0.030440
C     0.233784    1.472486   -0.095662    0.308054    0.024851   -0.033131
O    -2.369542   -0.862670    0.515571   -0.139464    0.077382    0.001727
O     0.350862    2.671753   -0.291041   -0.072059    0.005410    0.006175
H     2.024551   -1.532354    0.193984   -0.427438   -0.017227    0.044388
H    -0.177927   -2.296664    0.523307   -0.462637    0.227218    0.010330
H     2.491140    0.858068   -0.218840   -0.537834    0.352771   -0.004059
H    -1.813522    1.360612    0.118935    0.048129    0.597389   -0.098566
H    -2.621889   -1.801188    0.685519    0.871339   -0.048707   -0.080339
13
* Frequency(30) 1580.0256
C     1.425963    0.663785   -0.085654   -0.124974   -0.504883    0.089179
C     1.112686   -0.914307    0.186439    0.215385    0.522510   -0.100961
N    -0.019875   -1.312766    0.355574   -0.374059    0.196783    0.006235
C    -1.313754   -0.235830    0.315929    0.542753   -0.819986    0.073378
N    -0.942269    0.778042    0.124507   -0.154840    0.295381   -0.030440
C     0.205775    1.470227   -0.092650    0.308054    0.024851   -0.033131
O    -2.356862   -0.869705    0.515414   -0.139464    0.077382    0.001727
O     0.357414    2.671261   -0.291602   -0.072059    0.005410    0.006175
H     2.063415   -1.530788    0.189948   -0.427438   -0.017227    0.044388
H    -0.135863   -2.317323    0.522368   -0.462637    0.227218    0.010330
H     2.540041    0.825994   -0.218471   -0.537834    0.352771   -0.004059
H    -1.817898    1.306297    0.127897    0.048129    0.597389   -0.098566
H    -2.701113   -1.796759    0.692824    0.871339   -0.048707   -0.080339
13
* Frequency(30) 1580.0256
C     1.433838    0.695601   -0.091274   -0.124974   -0.504883    0.089179
C     1.099113   -0.947234    0.192801    0.215385    0.522510   -0.100961
N     0.003697   -1.325167    0.355181   -0.374059    0.196783    0.006235
C    -1.347956   -0.184157    0.311305    0.542753   -0.819986    0.073378
N    -0.932511    0.759428    0.126425   -0.154840    0.295381   -0.030440
C     0.186362    1.468661   -0.090562    0.308054    0.024851   -0.033131
O    -2.348073   -0.874582    0.515306   -0.139464    0.077382    0.001727
O     0.361955    2.670920   -0.291991   -0.072059    0.005410    0.006175
H     2.090351   -1.529702    0.187151   -0.427438   -0.017227    0.044388
H    -0.106709   -2.331641    0.521717   -0.462637    0.227218    0.010330
H     2.573934    0.803763   -0.218216   -0.537834    0.352771   -0.004059
H    -1.820931    1.268651    0.134108    0.048129    0.597389   -0.098566
H    -2.756022   -1.793690    0.697886    0.871339   -0.048707   -0.080339
13
* Frequency(30) 1580.0256
C     1.437373    0.709881   -0.093797   -0.124974   -0.504883    0.089179
C     1.093021   -0.962012    0.195657    0.215385    0.522510   -0.100961
N     0.014277   -1.330733    0.355005   -0.374059    0.196783    0.006235
C    -1.363307   -0.160964    0.309230    0.542753   -0.819986    0.073378
N    -0.928132    0.751074    0.127286   -0.154840    0.295381   -0.030440
C     0.177649    1.467958   -0.089625    0.308054    0.024851   -0.033131
O    -2.344128   -0.876770    0.515257   -0.139464    0.077382    0.001727
O     0.363993    2.670767   -0.292166   -0.072059    0.005410    0.006175
H     2.102440   -1.529215    0.185895   -0.427438   -0.017227    0.044388
H    -0.093623   -2.338068    0.521425   -0.462637    0.227218    0.010330
H     2.589146    0.793785   -0.218101   -0.537834    0.352771   -0.004059
H    -1.822292    1.251754    0.136896    0.048129    0.597389   -0.098566
H    -2.780667   -1.792312    0.700159    0.871339   -0.048707   -0.080339
13
* Frequency(30) 1580.0256
C     1.436184    0.705078   -0.092948   -0.124974   -0.504883    0.089179
C     1.095070   -0.957041    0.194696    0.215385    0.522510   -0.100961
N     0.010718   -1.328860    0.355064   -0.374059    0.196783    0.006235
C    -1.358143   -0.168766    0.309928    0.542753   -0.819986    0.073378
N    -0.929605    0.753884    0.126997   -0.154840    0.295381   -0.030440
C     0.180580    1.468194   -0.089940    0.308054    0.024851   -0.033131
O    -2.345455   -0.876034    0.515273   -0.139464    0.077382    0.001727
O     0.363307    2.670819   -0.292107   -0.072059    0.005410    0.006175
H     2.098374   -1.529379    0.186317   -0.427438   -0.017227    0.044388
H    -0.098025   -2.335906    0.521523   -0.462637    0.227218    0.010330
H     2.584028    0.797142   -0.218139   -0.537834    0.352771   -0.004059
H    -1.821834    1.257438    0.135958    0.048129    0.597389   -0.098566
H    -2.772377   -1.792776    0.699394    0.871339   -0.048707   -0.080339
13
* Frequency(30) 1580.0256
C     1.430400    0.681711   -0.088821   -0.124974   -0.504883    0.089179
C     1.105039   -0.932858    0.190024    0.215385    0.522510   -0.100961
N    -0.006594   -1.319753    0.355352   -0.374059    0.196783    0.006235
C    -1.333024   -0.206716    0.313324    0.542753   -0.819986    0.073378
N    -0.936771    0.767555    0.125588   -0.154840    0.295381   -0.030440
C     0.194838    1.469344   -0.091474    0.308054    0.024851   -0.033131
O    -2.351910   -0.872453    0.515353   -0.139464    0.077382    0.001727
O     0.359972    2.671069   -0.291821   -0.072059    0.005410    0.006175
H     2.078591   -1.530176    0.188372   -0.427438   -0.017227    0.044388
H    -0.119437   -2.325390    0.522001   -0.462637    0.227218    0.010330
H     2.559136    0.813469   -0.218327   -0.537834    0.352771   -0.004059
H    -1.819607    1.285086    0.131396    0.048129    0.597389   -0.098566
H    -2.732050   -1.795030    0.695676    0.871339   -0.048707   -0.080339
13
* Frequency(30) 1580.0256
C     1.420648    0.642313   -0.081862   -0.124974   -0.504883    0.089179
C     1.121846   -0.892085    0.182145    0.215385    0.522510   -0.100961
N    -0.035784   -1.304397    0.355839   -0.374059    0.196783    0.006235
C    -1.290671   -0.270703    0.319050    0.542753   -0.819986    0.073378
N    -0.948854    0.790604    0.123213   -0.154840    0.295381   -0.030440
C     0.218876    1.471283   -0.094059    0.308054    0.024851   -0.033131
O    -2.362793   -0.866414    0.515488   -0.139464    0.077382    0.001727
O     0.354349    2.671491   -0.291339   -0.072059    0.005410    0.006175
H     2.045236   -1.531520    0.191836   -0.427438   -0.017227    0.044388
H    -0.155538   -2.307659    0.522807   -0.462637    0.227218    0.010330
H     2.517167    0.840997   -0.218644   -0.537834    0.352771   -0.004059
H    -1.815851    1.331703    0.123705    0.048129    0.597389   -0.098566
H    -2.664056   -1.798831    0.689407    0.871339   -0.048707   -0.080339
13
* Frequency(30) 1580.0256
C     1.407984    0.591153   -0.072825   -0.124974   -0.504883    0.089179
C     1.143671   -0.839139    0.171915    0.215385    0.522510   -0.100961
N    -0.073687   -1.284457    0.356471   -0.374059    0.196783    0.006235
C    -1.235674   -0.353792    0.326485    0.542753   -0.819986    0.073378
N    -0.964544    0.820535    0.120128   -0.154840    0.295381   -0.030440
C     0.250091    1.473802   -0.097416    0.308054    0.024851   -0.033131
O    -2.376925   -0.858573    0.515663   -0.139464    0.077382    0.001727
O     0.347047    2.672040   -0.290714   -0.072059    0.005410    0.006175
H     2.001924   -1.533266    0.196333   -0.427438   -0.017227    0.044388
H    -0.202417   -2.284635    0.523854   -0.462637    0.227218    0.010330
H     2.462669    0.876743   -0.219055   -0.537834    0.352771   -0.004059
H    -1.810974    1.392236    0.113717    0.048129    0.597389   -0.098566
H    -2.575763   -1.803766    0.681266    0.871339   -0.048707   -0.080339
13
* Frequency(30) 1580.0256
C     1.393781    0.533776   -0.062691   -0.124974   -0.504883    0.089179
C     1.168148   -0.779758    0.160441    0.215385    0.522510   -0.100961
N    -0.116197   -1.262094    0.357179   -0.374059    0.196783    0.006235
C    -1.173993   -0.446979    0.334824    0.542753   -0.819986    0.073378
N    -0.982141    0.854104    0.116669   -0.154840    0.295381   -0.030440
C     0.285100    1.476626   -0.101181    0.308054    0.024851   -0.033131
O    -2.392774   -0.849779    0.515859   -0.139464    0.077382    0.001727
O     0.338858    2.672655   -0.290012   -0.072059    0.005410    0.006175
H     1.953348   -1.535224    0.201378   -0.427438   -0.017227    0.044388
H    -0.254993   -2.258813    0.525028   -0.462637    0.227218    0.010330
H     2.401547    0.916834   -0.219517   -0.537834    0.352771   -0.004059
H    -1.805505    1.460126    0.102516    0.048129    0.597389   -0.098566
H    -2.476740   -1.809302    0.672136    0.871339   -0.048707   -0.080339
