13
* (null), Energy   -1000.0000000
C     1.393781    0.533776   -0.062691   -0.163757    0.064587    0.005922
C     1.168148   -0.779758    0.160441    0.316443    0.063191   -0.039518
N    -0.116197   -1.262094    0.357179   -0.316381   -0.031581    0.034383
C    -1.173993   -0.446979    0.334824   -0.235045    0.008462    0.021351
N    -0.982141    0.854104    0.116669    0.074816    0.103020   -0.023080
C     0.285100    1.476626   -0.101181    0.129850    0.029786   -0.017000
O    -2.392774   -0.849779    0.515859    0.158308    0.005841   -0.016374
O     0.338858    2.672655   -0.290012   -0.027614   -0.076457    0.014392
H     1.953348   -1.535224    0.201378   -0.118285   -0.430082    0.077255
H    -0.254993   -2.258813    0.525028    1.515590   -0.314332   -0.093307
H     2.401547    0.916834   -0.219517    0.036316   -0.479899    0.069414
H    -1.805505    1.460126    0.102516   -0.503795   -0.682377    0.154961
H    -2.476740   -1.809302    0.672136   -0.213352    0.056491    0.014553
13
* Frequency(29) 1461.6127
C     1.375171    0.541116   -0.062018   -0.163757    0.064587    0.005922
C     1.204110   -0.772577    0.155950    0.316443    0.063191   -0.039518
N    -0.152152   -1.265683    0.361087   -0.316381   -0.031581    0.034383
C    -1.200704   -0.446017    0.337251   -0.235045    0.008462    0.021351
N    -0.973638    0.865811    0.114046    0.074816    0.103020   -0.023080
C     0.299857    1.480011   -0.103113    0.129850    0.029786   -0.017000
O    -2.374783   -0.849116    0.513998    0.158308    0.005841   -0.016374
O     0.335720    2.663966   -0.288376   -0.027614   -0.076457    0.014392
H     1.939906   -1.584100    0.210157   -0.118285   -0.430082    0.077255
H    -0.082754   -2.294536    0.514424    1.515590   -0.314332   -0.093307
H     2.405674    0.862296   -0.211628    0.036316   -0.479899    0.069414
H    -1.862759    1.382578    0.120126   -0.503795   -0.682377    0.154961
H    -2.500986   -1.802882    0.673790   -0.213352    0.056491    0.014553
13
* Frequency(29) 1461.6127
C     1.358578    0.547660   -0.061418   -0.163757    0.064587    0.005922
C     1.236175   -0.766174    0.151946    0.316443    0.063191   -0.039518
N    -0.184211   -1.268883    0.364571   -0.316381   -0.031581    0.034383
C    -1.224521   -0.445160    0.339414   -0.235045    0.008462    0.021351
N    -0.966057    0.876250    0.111707    0.074816    0.103020   -0.023080
C     0.313014    1.483029   -0.104836    0.129850    0.029786   -0.017000
O    -2.358742   -0.848524    0.512339    0.158308    0.005841   -0.016374
O     0.332922    2.656218   -0.286918   -0.027614   -0.076457    0.014392
H     1.927920   -1.627680    0.217986   -0.118285   -0.430082    0.077255
H     0.070820   -2.326387    0.504970    1.515590   -0.314332   -0.093307
H     2.409354    0.813668   -0.204594    0.036316   -0.479899    0.069414
H    -1.913808    1.313433    0.135828   -0.503795   -0.682377    0.154961
H    -2.522605   -1.797157    0.675265   -0.213352    0.056491    0.014553
13
* Frequency(29) 1461.6127
C     1.345799    0.552700   -0.060955   -0.163757    0.064587    0.005922
C     1.260869   -0.761243    0.148862    0.316443    0.063191   -0.039518
N    -0.208899   -1.271347    0.367254   -0.316381   -0.031581    0.034383
C    -1.242863   -0.444500    0.341080   -0.235045    0.008462    0.021351
N    -0.960219    0.884289    0.109906    0.074816    0.103020   -0.023080
C     0.323147    1.485353   -0.106162    0.129850    0.029786   -0.017000
O    -2.346389   -0.848068    0.511061    0.158308    0.005841   -0.016374
O     0.330767    2.650252   -0.285795   -0.027614   -0.076457    0.014392
H     1.918690   -1.661241    0.224014   -0.118285   -0.430082    0.077255
H     0.189087   -2.350915    0.497689    1.515590   -0.314332   -0.093307
H     2.412187    0.776219   -0.199178    0.036316   -0.479899    0.069414
H    -1.953121    1.260184    0.147921   -0.503795   -0.682377    0.154961
H    -2.539254   -1.792749    0.676400   -0.213352    0.056491    0.014553
13
* Frequency(29) 1461.6127
C     1.338220    0.555690   -0.060681   -0.163757    0.064587    0.005922
C     1.275514   -0.758318    0.147033    0.316443    0.063191   -0.039518
N    -0.223542   -1.272809    0.368845   -0.316381   -0.031581    0.034383
C    -1.253741   -0.444108    0.342068   -0.235045    0.008462    0.021351
N    -0.956757    0.889057    0.108838    0.074816    0.103020   -0.023080
C     0.329157    1.486732   -0.106949    0.129850    0.029786   -0.017000
O    -2.339062   -0.847798    0.510303    0.158308    0.005841   -0.016374
O     0.329489    2.646714   -0.285129   -0.027614   -0.076457    0.014392
H     1.913215   -1.681146    0.227590   -0.118285   -0.430082    0.077255
H     0.259231   -2.365463    0.493370    1.515590   -0.314332   -0.093307
H     2.413868    0.754009   -0.195965    0.036316   -0.479899    0.069414
H    -1.976437    1.228602    0.155092   -0.503795   -0.682377    0.154961
H    -2.549128   -1.790135    0.677074   -0.213352    0.056491    0.014553
13
* Frequency(29) 1461.6127
C     1.336662    0.556304   -0.060625   -0.163757    0.064587    0.005922
C     1.278525   -0.757717    0.146657    0.316443    0.063191   -0.039518
N    -0.226552   -1.273109    0.369173   -0.316381   -0.031581    0.034383
C    -1.255978   -0.444027    0.342271   -0.235045    0.008462    0.021351
N    -0.956045    0.890038    0.108618    0.074816    0.103020   -0.023080
C     0.330392    1.487015   -0.107111    0.129850    0.029786   -0.017000
O    -2.337556   -0.847742    0.510148    0.158308    0.005841   -0.016374
O     0.329226    2.645986   -0.284992   -0.027614   -0.076457    0.014392
H     1.912090   -1.685238    0.228325   -0.118285   -0.430082    0.077255
H     0.273652   -2.368454    0.492482    1.515590   -0.314332   -0.093307
H     2.414214    0.749443   -0.195305    0.036316   -0.479899    0.069414
H    -1.981231    1.222110    0.156567   -0.503795   -0.682377    0.154961
H    -2.551158   -1.789597    0.677212   -0.213352    0.056491    0.014553
13
* Frequency(29) 1461.6127
C     1.341294    0.554477   -0.060792   -0.163757    0.064587    0.005922
C     1.269575   -0.759505    0.147775    0.316443    0.063191   -0.039518
N    -0.217603   -1.272216    0.368200   -0.316381   -0.031581    0.034383
C    -1.249330   -0.444267    0.341667   -0.235045    0.008462    0.021351
N    -0.958161    0.887124    0.109271    0.074816    0.103020   -0.023080
C     0.326720    1.486173   -0.106630    0.129850    0.029786   -0.017000
O    -2.342033   -0.847907    0.510611    0.158308    0.005841   -0.016374
O     0.330007    2.648149   -0.285399   -0.027614   -0.076457    0.014392
H     1.915435   -1.673074    0.226140   -0.118285   -0.430082    0.077255
H     0.230785   -2.359563    0.495121    1.515590   -0.314332   -0.093307
H     2.413187    0.763016   -0.197268    0.036316   -0.479899    0.069414
H    -1.966982    1.241410    0.152184   -0.503795   -0.682377    0.154961
H    -2.545124   -1.791195    0.676801   -0.213352    0.056491    0.014553
13
* Frequency(29) 1461.6127
C     1.351613    0.550407   -0.061166   -0.163757    0.064587    0.005922
C     1.249633   -0.763487    0.150265    0.316443    0.063191   -0.039518
N    -0.197666   -1.270226    0.366033   -0.316381   -0.031581    0.034383
C    -1.234518   -0.444800    0.340322   -0.235045    0.008462    0.021351
N    -0.962876    0.880632    0.110726    0.074816    0.103020   -0.023080
C     0.318537    1.484296   -0.105559    0.129850    0.029786   -0.017000
O    -2.352009   -0.848275    0.511643    0.158308    0.005841   -0.016374
O     0.331748    2.652967   -0.286306   -0.027614   -0.076457    0.014392
H     1.922889   -1.645971    0.221271   -0.118285   -0.430082    0.077255
H     0.135276   -2.339755    0.501001    1.515590   -0.314332   -0.093307
H     2.410898    0.793258   -0.201642    0.036316   -0.479899    0.069414
H    -1.935234    1.284412    0.142419   -0.503795   -0.682377    0.154961
H    -2.531679   -1.794755    0.675884   -0.213352    0.056491    0.014553
13
* Frequency(29) 1461.6127
C     1.366502    0.544535   -0.061704   -0.163757    0.064587    0.005922
C     1.220862   -0.769232    0.153858    0.316443    0.063191   -0.039518
N    -0.168900   -1.267355    0.362907   -0.316381   -0.031581    0.034383
C    -1.213147   -0.445569    0.338381   -0.235045    0.008462    0.021351
N    -0.969678    0.871265    0.112824    0.074816    0.103020   -0.023080
C     0.306731    1.481588   -0.104013    0.129850    0.029786   -0.017000
O    -2.366403   -0.848806    0.513131    0.158308    0.005841   -0.016374
O     0.334258    2.659918   -0.287615   -0.027614   -0.076457    0.014392
H     1.933644   -1.606868    0.214247   -0.118285   -0.430082    0.077255
H    -0.002524   -2.311175    0.509485    1.515590   -0.314332   -0.093307
H     2.407596    0.836891   -0.207953    0.036316   -0.479899    0.069414
H    -1.889428    1.346455    0.128329   -0.503795   -0.682377    0.154961
H    -2.512280   -1.799891    0.674560   -0.213352    0.056491    0.014553
13
* Frequency(29) 1461.6127
C     1.384348    0.537497   -0.062349   -0.163757    0.064587    0.005922
C     1.186378   -0.776118    0.158165    0.316443    0.063191   -0.039518
N    -0.134423   -1.263913    0.359160   -0.316381   -0.031581    0.034383
C    -1.187533   -0.446492    0.336054   -0.235045    0.008462    0.021351
N    -0.977831    0.860038    0.115339    0.074816    0.103020   -0.023080
C     0.292580    1.478342   -0.102161    0.129850    0.029786   -0.017000
O    -2.383654   -0.849443    0.514916    0.158308    0.005841   -0.016374
O     0.337267    2.668250   -0.289183   -0.027614   -0.076457    0.014392
H     1.946534   -1.560000    0.205828   -0.118285   -0.430082    0.077255
H    -0.167683   -2.276921    0.519653    1.515590   -0.314332   -0.093307
H     2.403639    0.889187   -0.215518    0.036316   -0.479899    0.069414
H    -1.834528    1.420816    0.111443   -0.503795   -0.682377    0.154961
H    -2.489031   -1.806047    0.672974   -0.213352    0.056491    0.014553
13
* Frequency(29) 1461.6127
C     1.403215    0.530055   -0.063032   -0.163757    0.064587    0.005922
C     1.149919   -0.783399    0.162718    0.316443    0.063191   -0.039518
N    -0.097971   -1.260275    0.355199   -0.316381   -0.031581    0.034383
C    -1.160452   -0.447466    0.333594   -0.235045    0.008462    0.021351
N    -0.986451    0.848169    0.117998    0.074816    0.103020   -0.023080
C     0.277620    1.474910   -0.100202    0.129850    0.029786   -0.017000
O    -2.401894   -0.850116    0.516802    0.158308    0.005841   -0.016374
O     0.340449    2.677059   -0.290841   -0.027614   -0.076457    0.014392
H     1.960162   -1.510448    0.196927   -0.118285   -0.430082    0.077255
H    -0.342304   -2.240705    0.530403    1.515590   -0.314332   -0.093307
H     2.399454    0.944480   -0.223515    0.036316   -0.479899    0.069414
H    -1.776482    1.499437    0.093589   -0.503795   -0.682377    0.154961
H    -2.464449   -1.812556    0.671298   -0.213352    0.056491    0.014553
13
* Frequency(29) 1461.6127
C     1.421060    0.523017   -0.063677   -0.163757    0.064587    0.005922
C     1.115435   -0.790285    0.167024    0.316443    0.063191   -0.039518
N    -0.063494   -1.256833    0.351452   -0.316381   -0.031581    0.034383
C    -1.134839   -0.448389    0.331268   -0.235045    0.008462    0.021351
N    -0.994604    0.836942    0.120514    0.074816    0.103020   -0.023080
C     0.263469    1.471664   -0.098350    0.129850    0.029786   -0.017000
O    -2.419146   -0.850752    0.518587    0.158308    0.005841   -0.016374
O     0.343458    2.685391   -0.292409   -0.027614   -0.076457    0.014392
H     1.973052   -1.463580    0.188508   -0.118285   -0.430082    0.077255
H    -0.507463   -2.206451    0.540571    1.515590   -0.314332   -0.093307
H     2.395497    0.996776   -0.231080    0.036316   -0.479899    0.069414
H    -1.721582    1.573798    0.076702   -0.503795   -0.682377    0.154961
H    -2.441199   -1.818712    0.669712   -0.213352    0.056491    0.014553
13
* Frequency(29) 1461.6127
C     1.435950    0.517144   -0.064215   -0.163757    0.064587    0.005922
C     1.086663   -0.796030    0.170617    0.316443    0.063191   -0.039518
N    -0.034728   -1.253962    0.348326   -0.316381   -0.031581    0.034383
C    -1.113468   -0.449158    0.329326   -0.235045    0.008462    0.021351
N    -1.001406    0.827576    0.122612    0.074816    0.103020   -0.023080
C     0.251663    1.468956   -0.096804    0.129850    0.029786   -0.017000
O    -2.433539   -0.851283    0.520075    0.158308    0.005841   -0.016374
O     0.345969    2.692342   -0.293718   -0.027614   -0.076457    0.014392
H     1.983807   -1.424476    0.181484   -0.118285   -0.430082    0.077255
H    -0.645263   -2.177872    0.549055    1.515590   -0.314332   -0.093307
H     2.392195    1.040409   -0.237391    0.036316   -0.479899    0.069414
H    -1.675776    1.635841    0.062613   -0.503795   -0.682377    0.154961
H    -2.421801   -1.823848    0.668389   -0.213352    0.056491    0.014553
13
* Frequency(29) 1461.6127
C     1.446269    0.513074   -0.064589   -0.163757    0.064587    0.005922
C     1.066722   -0.800012    0.173107    0.316443    0.063191   -0.039518
N    -0.014790   -1.251972    0.346159   -0.316381   -0.031581    0.034383
C    -1.098656   -0.449691    0.327981   -0.235045    0.008462    0.021351
N    -1.006121    0.821084    0.124067    0.074816    0.103020   -0.023080
C     0.243480    1.467079   -0.095733    0.129850    0.029786   -0.017000
O    -2.443515   -0.851651    0.521107    0.158308    0.005841   -0.016374
O     0.347709    2.697160   -0.294625   -0.027614   -0.076457    0.014392
H     1.991261   -1.397374    0.176616   -0.118285   -0.430082    0.077255
H    -0.740771   -2.158064    0.554935    1.515590   -0.314332   -0.093307
H     2.389906    1.070651   -0.241765    0.036316   -0.479899    0.069414
H    -1.644028    1.678842    0.052848   -0.503795   -0.682377    0.154961
H    -2.408356   -1.827408    0.667472   -0.213352    0.056491    0.014553
13
* Frequency(29) 1461.6127
C     1.450901    0.511248   -0.064756   -0.163757    0.064587    0.005922
C     1.057772   -0.801800    0.174225    0.316443    0.063191   -0.039518
N    -0.005842   -1.251078    0.345186   -0.316381   -0.031581    0.034383
C    -1.092008   -0.449931    0.327377   -0.235045    0.008462    0.021351
N    -1.008237    0.818170    0.124719    0.074816    0.103020   -0.023080
C     0.239808    1.466236   -0.095252    0.129850    0.029786   -0.017000
O    -2.447993   -0.851817    0.521570    0.158308    0.005841   -0.016374
O     0.348490    2.699323   -0.295032   -0.027614   -0.076457    0.014392
H     1.994607   -1.385209    0.174431   -0.118285   -0.430082    0.077255
H    -0.783638   -2.149173    0.557574    1.515590   -0.314332   -0.093307
H     2.388879    1.084224   -0.243728    0.036316   -0.479899    0.069414
H    -1.629779    1.698143    0.048465   -0.503795   -0.682377    0.154961
H    -2.402322   -1.829006    0.667060   -0.213352    0.056491    0.014553
13
* Frequency(29) 1461.6127
C     1.449343    0.511862   -0.064700   -0.163757    0.064587    0.005922
C     1.060782   -0.801199    0.173849    0.316443    0.063191   -0.039518
N    -0.008852   -1.251379    0.345514   -0.316381   -0.031581    0.034383
C    -1.094244   -0.449850    0.327580   -0.235045    0.008462    0.021351
N    -1.007525    0.819150    0.124500    0.074816    0.103020   -0.023080
C     0.241043    1.466520   -0.095414    0.129850    0.029786   -0.017000
O    -2.446487   -0.851761    0.521415    0.158308    0.005841   -0.016374
O     0.348227    2.698596   -0.294895   -0.027614   -0.076457    0.014392
H     1.993481   -1.389301    0.175166   -0.118285   -0.430082    0.077255
H    -0.769218   -2.152164    0.556686    1.515590   -0.314332   -0.093307
H     2.389225    1.079658   -0.243068    0.036316   -0.479899    0.069414
H    -1.634572    1.691650    0.049939   -0.503795   -0.682377    0.154961
H    -2.404352   -1.828468    0.667198   -0.213352    0.056491    0.014553
13
* Frequency(29) 1461.6127
C     1.441764    0.514851   -0.064426   -0.163757    0.064587    0.005922
C     1.075428   -0.798274    0.172020    0.316443    0.063191   -0.039518
N    -0.023495   -1.252840    0.347105   -0.316381   -0.031581    0.034383
C    -1.105123   -0.449458    0.328568   -0.235045    0.008462    0.021351
N    -1.004062    0.823918    0.123432    0.074816    0.103020   -0.023080
C     0.247053    1.467898   -0.096200    0.129850    0.029786   -0.017000
O    -2.439160   -0.851491    0.520657    0.158308    0.005841   -0.016374
O     0.346949    2.695057   -0.294229   -0.027614   -0.076457    0.014392
H     1.988007   -1.409206    0.178741   -0.118285   -0.430082    0.077255
H    -0.699074   -2.166712    0.552368    1.515590   -0.314332   -0.093307
H     2.390906    1.057448   -0.239855    0.036316   -0.479899    0.069414
H    -1.657889    1.660069    0.057111   -0.503795   -0.682377    0.154961
H    -2.414226   -1.825854    0.667872   -0.213352    0.056491    0.014553
13
* Frequency(29) 1461.6127
C     1.428985    0.519891   -0.063964   -0.163757    0.064587    0.005922
C     1.100121   -0.793343    0.168936    0.316443    0.063191   -0.039518
N    -0.048183   -1.255305    0.349788   -0.316381   -0.031581    0.034383
C    -1.123464   -0.448798    0.330234   -0.235045    0.008462    0.021351
N    -0.998224    0.831957    0.121631    0.074816    0.103020   -0.023080
C     0.257186    1.470222   -0.097527    0.129850    0.029786   -0.017000
O    -2.426807   -0.851035    0.519379    0.158308    0.005841   -0.016374
O     0.344794    2.689091   -0.293106   -0.027614   -0.076457    0.014392
H     1.978777   -1.442767    0.184770   -0.118285   -0.430082    0.077255
H    -0.580806   -2.191240    0.545087    1.515590   -0.314332   -0.093307
H     2.393739    1.019999   -0.234439    0.036316   -0.479899    0.069414
H    -1.697202    1.606820    0.069203   -0.503795   -0.682377    0.154961
H    -2.430875   -1.821446    0.669008   -0.213352    0.056491    0.014553
13
* Frequency(29) 1461.6127
C     1.412392    0.526436   -0.063363   -0.163757    0.064587    0.005922
C     1.132186   -0.786940    0.164932    0.316443    0.063191   -0.039518
N    -0.080242   -1.258505    0.353272   -0.316381   -0.031581    0.034383
C    -1.147281   -0.447941    0.332398   -0.235045    0.008462    0.021351
N    -0.990643    0.842396    0.119292    0.074816    0.103020   -0.023080
C     0.270343    1.473241   -0.099249    0.129850    0.029786   -0.017000
O    -2.410765   -0.850443    0.517720    0.158308    0.005841   -0.016374
O     0.341996    2.681343   -0.291648   -0.027614   -0.076457    0.014392
H     1.966791   -1.486347    0.192598   -0.118285   -0.430082    0.077255
H    -0.427232   -2.223091    0.535632    1.515590   -0.314332   -0.093307
H     2.397419    0.971372   -0.227405    0.036316   -0.479899    0.069414
H    -1.748251    1.537675    0.084905   -0.503795   -0.682377    0.154961
H    -2.452494   -1.815721    0.670482   -0.213352    0.056491    0.014553
13
* Frequency(29) 1461.6127
C     1.393781    0.533776   -0.062691   -0.163757    0.064587    0.005922
C     1.168148   -0.779758    0.160441    0.316443    0.063191   -0.039518
N    -0.116197   -1.262094    0.357179   -0.316381   -0.031581    0.034383
C    -1.173993   -0.446979    0.334824   -0.235045    0.008462    0.021351
N    -0.982141    0.854104    0.116669    0.074816    0.103020   -0.023080
C     0.285100    1.476626   -0.101181    0.129850    0.029786   -0.017000
O    -2.392774   -0.849779    0.515859    0.158308    0.005841   -0.016374
O     0.338858    2.672655   -0.290012   -0.027614   -0.076457    0.014392
H     1.953348   -1.535224    0.201378   -0.118285   -0.430082    0.077255
H    -0.254993   -2.258813    0.525028    1.515590   -0.314332   -0.093307
H     2.401547    0.916834   -0.219517    0.036316   -0.479899    0.069414
H    -1.805505    1.460126    0.102516   -0.503795   -0.682377    0.154961
H    -2.476740   -1.809302    0.672136   -0.213352    0.056491    0.014553
