13
* (null), Energy   -1000.0000000
C     1.393781    0.533776   -0.062691   -0.203303    0.309310   -0.027933
C     1.168148   -0.779758    0.160441    0.169895    0.039817   -0.022715
N    -0.116197   -1.262094    0.357179    0.079075   -0.085292    0.005855
C    -1.173993   -0.446979    0.334824    0.059604    0.024124   -0.009434
N    -0.982141    0.854104    0.116669   -0.094650   -0.062121    0.018716
C     0.285100    1.476626   -0.101181    0.159118    0.019329   -0.018212
O    -2.392774   -0.849779    0.515859   -0.034643    0.003853    0.002862
O     0.338858    2.672655   -0.290012   -0.004767   -0.077955    0.012425
H     1.953348   -1.535224    0.201378   -0.868072   -1.058558    0.247139
H    -0.254993   -2.258813    0.525028   -0.993722    0.068961    0.081593
H     2.401547    0.916834   -0.219517    0.223555   -0.785719    0.098051
H    -1.805505    1.460126    0.102516    0.193792    0.327307   -0.069868
H    -2.476740   -1.809302    0.672136    0.078245   -0.005270   -0.008060
13
* Frequency(28) 1395.2489
C     1.370677    0.568927   -0.065865   -0.203303    0.309310   -0.027933
C     1.187456   -0.775234    0.157860    0.169895    0.039817   -0.022715
N    -0.107210   -1.271787    0.357845    0.079075   -0.085292    0.005855
C    -1.167219   -0.444237    0.333752    0.059604    0.024124   -0.009434
N    -0.992897    0.847044    0.118796   -0.094650   -0.062121    0.018716
C     0.303183    1.478822   -0.103251    0.159118    0.019329   -0.018212
O    -2.396711   -0.849341    0.516184   -0.034643    0.003853    0.002862
O     0.338316    2.663795   -0.288600   -0.004767   -0.077955    0.012425
H     1.854696   -1.655523    0.229464   -0.868072   -1.058558    0.247139
H    -0.367925   -2.250976    0.534301   -0.993722    0.068961    0.081593
H     2.426952    0.827541   -0.208374    0.223555   -0.785719    0.098051
H    -1.783481    1.497323    0.094576    0.193792    0.327307   -0.069868
H    -2.467848   -1.809901    0.671220    0.078245   -0.005270   -0.008060
13
* Frequency(28) 1395.2489
C     1.350077    0.600269   -0.068695   -0.203303    0.309310   -0.027933
C     1.204671   -0.771199    0.155558    0.169895    0.039817   -0.022715
N    -0.099198   -1.280430    0.358438    0.079075   -0.085292    0.005855
C    -1.161180   -0.441793    0.332796    0.059604    0.024124   -0.009434
N    -1.002488    0.840749    0.120692   -0.094650   -0.062121    0.018716
C     0.319306    1.480781   -0.105097    0.159118    0.019329   -0.018212
O    -2.400222   -0.848951    0.516474   -0.034643    0.003853    0.002862
O     0.337833    2.655896   -0.287341   -0.004767   -0.077955    0.012425
H     1.766735   -1.762787    0.254506   -0.868072   -1.058558    0.247139
H    -0.468618   -2.243989    0.542569   -0.993722    0.068961    0.081593
H     2.449605    0.747924   -0.198438    0.223555   -0.785719    0.098051
H    -1.763845    1.530489    0.087496    0.193792    0.327307   -0.069868
H    -2.459919   -1.810435    0.670403    0.078245   -0.005270   -0.008060
13
* Frequency(28) 1395.2489
C     1.334212    0.624406   -0.070875   -0.203303    0.309310   -0.027933
C     1.217929   -0.768092    0.153785    0.169895    0.039817   -0.022715
N    -0.093027   -1.287085    0.358895    0.079075   -0.085292    0.005855
C    -1.156528   -0.439910    0.332060    0.059604    0.024124   -0.009434
N    -1.009874    0.835902    0.122153   -0.094650   -0.062121    0.018716
C     0.331723    1.482289   -0.106518    0.159118    0.019329   -0.018212
O    -2.402925   -0.848650    0.516698   -0.034643    0.003853    0.002862
O     0.337461    2.649813   -0.286371   -0.004767   -0.077955    0.012425
H     1.698996   -1.845390    0.273792   -0.868072   -1.058558    0.247139
H    -0.546162   -2.238607    0.548936   -0.993722    0.068961    0.081593
H     2.467050    0.686611   -0.190787    0.223555   -0.785719    0.098051
H    -1.748722    1.556030    0.082044    0.193792    0.327307   -0.069868
H    -2.453814   -1.810846    0.669774    0.078245   -0.005270   -0.008060
13
* Frequency(28) 1395.2489
C     1.324803    0.638722   -0.072168   -0.203303    0.309310   -0.027933
C     1.225792   -0.766249    0.152734    0.169895    0.039817   -0.022715
N    -0.089367   -1.291033    0.359166    0.079075   -0.085292    0.005855
C    -1.153770   -0.438794    0.331623    0.059604    0.024124   -0.009434
N    -1.014255    0.833027    0.123019   -0.094650   -0.062121    0.018716
C     0.339087    1.483184   -0.107361    0.159118    0.019329   -0.018212
O    -2.404528   -0.848472    0.516830   -0.034643    0.003853    0.002862
O     0.337241    2.646205   -0.285796   -0.004767   -0.077955    0.012425
H     1.658820   -1.894382    0.285230   -0.868072   -1.058558    0.247139
H    -0.592153   -2.235416    0.552712   -0.993722    0.068961    0.081593
H     2.477397    0.650247   -0.186249    0.223555   -0.785719    0.098051
H    -1.739753    1.571178    0.078810    0.193792    0.327307   -0.069868
H    -2.450192   -1.811090    0.669401    0.078245   -0.005270   -0.008060
13
* Frequency(28) 1395.2489
C     1.322869    0.641664   -0.072434   -0.203303    0.309310   -0.027933
C     1.227408   -0.765870    0.152518    0.169895    0.039817   -0.022715
N    -0.088615   -1.291844    0.359222    0.079075   -0.085292    0.005855
C    -1.153203   -0.438564    0.331534    0.059604    0.024124   -0.009434
N    -1.015155    0.832436    0.123197   -0.094650   -0.062121    0.018716
C     0.340601    1.483368   -0.107534    0.159118    0.019329   -0.018212
O    -2.404858   -0.848435    0.516857   -0.034643    0.003853    0.002862
O     0.337195    2.645464   -0.285678   -0.004767   -0.077955    0.012425
H     1.650561   -1.904454    0.287581   -0.868072   -1.058558    0.247139
H    -0.601608   -2.234760    0.553488   -0.993722    0.068961    0.081593
H     2.479524    0.642771   -0.185316    0.223555   -0.785719    0.098051
H    -1.737909    1.574292    0.078146    0.193792    0.327307   -0.069868
H    -2.449448   -1.811140    0.669325    0.078245   -0.005270   -0.008060
13
* Frequency(28) 1395.2489
C     1.328619    0.632916   -0.071644   -0.203303    0.309310   -0.027933
C     1.222603   -0.766996    0.153161    0.169895    0.039817   -0.022715
N    -0.090851   -1.289432    0.359056    0.079075   -0.085292    0.005855
C    -1.154889   -0.439247    0.331800    0.059604    0.024124   -0.009434
N    -1.012478    0.834193    0.122668   -0.094650   -0.062121    0.018716
C     0.336101    1.482821   -0.107019    0.159118    0.019329   -0.018212
O    -2.403878   -0.848544    0.516776   -0.034643    0.003853    0.002862
O     0.337330    2.647668   -0.286029   -0.004767   -0.077955    0.012425
H     1.675113   -1.874514    0.280591   -0.868072   -1.058558    0.247139
H    -0.573502   -2.236710    0.551181   -0.993722    0.068961    0.081593
H     2.473201    0.664994   -0.188089    0.223555   -0.785719    0.098051
H    -1.743391    1.565035    0.080122    0.193792    0.327307   -0.069868
H    -2.451661   -1.810991    0.669553    0.078245   -0.005270   -0.008060
13
* Frequency(28) 1395.2489
C     1.341430    0.613424   -0.069883   -0.203303    0.309310   -0.027933
C     1.211897   -0.769506    0.154592    0.169895    0.039817   -0.022715
N    -0.095835   -1.284057    0.358687    0.079075   -0.085292    0.005855
C    -1.158645   -0.440767    0.332395    0.059604    0.024124   -0.009434
N    -1.006513    0.838107    0.121488   -0.094650   -0.062121    0.018716
C     0.326073    1.481603   -0.105871    0.159118    0.019329   -0.018212
O    -2.401695   -0.848787    0.516596   -0.034643    0.003853    0.002862
O     0.337631    2.652581   -0.286812   -0.004767   -0.077955    0.012425
H     1.729817   -1.807806    0.265017   -0.868072   -1.058558    0.247139
H    -0.510880   -2.241056    0.546039   -0.993722    0.068961    0.081593
H     2.459113    0.714508   -0.194268    0.223555   -0.785719    0.098051
H    -1.755603    1.544409    0.084525    0.193792    0.327307   -0.069868
H    -2.456592   -1.810659    0.670061    0.078245   -0.005270   -0.008060
13
* Frequency(28) 1395.2489
C     1.359915    0.585301   -0.067344   -0.203303    0.309310   -0.027933
C     1.196450   -0.773126    0.156657    0.169895    0.039817   -0.022715
N    -0.103024   -1.276302    0.358155    0.079075   -0.085292    0.005855
C    -1.164064   -0.442960    0.333253    0.059604    0.024124   -0.009434
N    -0.997908    0.843756    0.119787   -0.094650   -0.062121    0.018716
C     0.311606    1.479846   -0.104215    0.159118    0.019329   -0.018212
O    -2.398545   -0.849138    0.516336   -0.034643    0.003853    0.002862
O     0.338064    2.659669   -0.287942   -0.004767   -0.077955    0.012425
H     1.808743   -1.711560    0.242547   -0.868072   -1.058558    0.247139
H    -0.420529   -2.247326    0.538620   -0.993722    0.068961    0.081593
H     2.438787    0.785947   -0.203183    0.223555   -0.785719    0.098051
H    -1.773223    1.514650    0.090877    0.193792    0.327307   -0.069868
H    -2.463706   -1.810180    0.670793    0.078245   -0.005270   -0.008060
13
* Frequency(28) 1395.2489
C     1.382070    0.551595   -0.064300   -0.203303    0.309310   -0.027933
C     1.177936   -0.777465    0.159133    0.169895    0.039817   -0.022715
N    -0.111641   -1.267007    0.357517    0.079075   -0.085292    0.005855
C    -1.170559   -0.445589    0.334281    0.059604    0.024124   -0.009434
N    -0.987593    0.850525    0.117747   -0.094650   -0.062121    0.018716
C     0.294267    1.477739   -0.102231    0.159118    0.019329   -0.018212
O    -2.394770   -0.849557    0.516024   -0.034643    0.003853    0.002862
O     0.338584    2.668164   -0.289296   -0.004767   -0.077955    0.012425
H     1.903340   -1.596205    0.215615   -0.868072   -1.058558    0.247139
H    -0.312240   -2.254841    0.529729   -0.993722    0.068961    0.081593
H     2.414425    0.871570   -0.213868    0.223555   -0.785719    0.098051
H    -1.794341    1.478982    0.098491    0.193792    0.327307   -0.069868
H    -2.472232   -1.809605    0.671672    0.078245   -0.005270   -0.008060
13
* Frequency(28) 1395.2489
C     1.405493    0.515957   -0.061081   -0.203303    0.309310   -0.027933
C     1.158361   -0.782052    0.161750    0.169895    0.039817   -0.022715
N    -0.120752   -1.257180    0.356842    0.079075   -0.085292    0.005855
C    -1.177427   -0.448369    0.335368    0.059604    0.024124   -0.009434
N    -0.976688    0.857682    0.115591   -0.094650   -0.062121    0.018716
C     0.275934    1.475512   -0.100132    0.159118    0.019329   -0.018212
O    -2.390779   -0.850001    0.515694   -0.034643    0.003853    0.002862
O     0.339133    2.677145   -0.290728   -0.004767   -0.077955    0.012425
H     2.003356   -1.474242    0.187141   -0.868072   -1.058558    0.247139
H    -0.197747   -2.262786    0.520328   -0.993722    0.068961    0.081593
H     2.388668    0.962097   -0.225165    0.223555   -0.785719    0.098051
H    -1.816669    1.441271    0.106541    0.193792    0.327307   -0.069868
H    -2.481247   -1.808998    0.672600    0.078245   -0.005270   -0.008060
13
* Frequency(28) 1395.2489
C     1.427648    0.482250   -0.058037   -0.203303    0.309310   -0.027933
C     1.139847   -0.786391    0.164225    0.169895    0.039817   -0.022715
N    -0.129369   -1.247886    0.356204    0.079075   -0.085292    0.005855
C    -1.183922   -0.450998    0.336396    0.059604    0.024124   -0.009434
N    -0.966374    0.864452    0.113551   -0.094650   -0.062121    0.018716
C     0.258594    1.473406   -0.098148    0.159118    0.019329   -0.018212
O    -2.387003   -0.850421    0.515382   -0.034643    0.003853    0.002862
O     0.339652    2.685640   -0.292082   -0.004767   -0.077955    0.012425
H     2.097953   -1.358888    0.160209   -0.868072   -1.058558    0.247139
H    -0.089457   -2.270301    0.511436   -0.993722    0.068961    0.081593
H     2.364306    1.047720   -0.235850    0.223555   -0.785719    0.098051
H    -1.837787    1.405603    0.114154    0.193792    0.327307   -0.069868
H    -2.489774   -1.808424    0.673479    0.078245   -0.005270   -0.008060
13
* Frequency(28) 1395.2489
C     1.446133    0.454127   -0.055498   -0.203303    0.309310   -0.027933
C     1.124400   -0.790011    0.166290    0.169895    0.039817   -0.022715
N    -0.136559   -1.240131    0.355672    0.079075   -0.085292    0.005855
C    -1.189341   -0.453191    0.337253    0.059604    0.024124   -0.009434
N    -0.957768    0.870100    0.111849   -0.094650   -0.062121    0.018716
C     0.244127    1.471648   -0.096492    0.159118    0.019329   -0.018212
O    -2.383854   -0.850772    0.515122   -0.034643    0.003853    0.002862
O     0.340086    2.692728   -0.293212   -0.004767   -0.077955    0.012425
H     2.176880   -1.262642    0.137739   -0.868072   -1.058558    0.247139
H     0.000894   -2.276571    0.504018   -0.993722    0.068961    0.081593
H     2.343980    1.119159   -0.244765    0.223555   -0.785719    0.098051
H    -1.855407    1.375844    0.120507    0.193792    0.327307   -0.069868
H    -2.496888   -1.807944    0.674212    0.078245   -0.005270   -0.008060
13
* Frequency(28) 1395.2489
C     1.458944    0.434636   -0.053737   -0.203303    0.309310   -0.027933
C     1.113694   -0.792521    0.167722    0.169895    0.039817   -0.022715
N    -0.141542   -1.234756    0.355303    0.079075   -0.085292    0.005855
C    -1.193097   -0.454711    0.337848    0.059604    0.024124   -0.009434
N    -0.951804    0.874015    0.110670   -0.094650   -0.062121    0.018716
C     0.234099    1.470430   -0.095344    0.159118    0.019329   -0.018212
O    -2.381670   -0.851014    0.514942   -0.034643    0.003853    0.002862
O     0.340386    2.697641   -0.293995   -0.004767   -0.077955    0.012425
H     2.231583   -1.195934    0.122165   -0.868072   -1.058558    0.247139
H     0.063515   -2.280917    0.498876   -0.993722    0.068961    0.081593
H     2.329893    1.168673   -0.250944    0.223555   -0.785719    0.098051
H    -1.867619    1.355218    0.124910    0.193792    0.327307   -0.069868
H    -2.501819   -1.807612    0.674720    0.078245   -0.005270   -0.008060
13
* Frequency(28) 1395.2489
C     1.464694    0.425887   -0.052947   -0.203303    0.309310   -0.027933
C     1.108888   -0.793647    0.168364    0.169895    0.039817   -0.022715
N    -0.143779   -1.232343    0.355137    0.079075   -0.085292    0.005855
C    -1.194783   -0.455393    0.338115    0.059604    0.024124   -0.009434
N    -0.949127    0.875772    0.110141   -0.094650   -0.062121    0.018716
C     0.229599    1.469884   -0.094829    0.159118    0.019329   -0.018212
O    -2.380691   -0.851123    0.514861   -0.034643    0.003853    0.002862
O     0.340521    2.699845   -0.294346   -0.004767   -0.077955    0.012425
H     2.256136   -1.165994    0.115174   -0.868072   -1.058558    0.247139
H     0.091622   -2.282867    0.496568   -0.993722    0.068961    0.081593
H     2.323569    1.190896   -0.253717    0.223555   -0.785719    0.098051
H    -1.873100    1.345960    0.126886    0.193792    0.327307   -0.069868
H    -2.504032   -1.807463    0.674948    0.078245   -0.005270   -0.008060
13
* Frequency(28) 1395.2489
C     1.462760    0.428830   -0.053213   -0.203303    0.309310   -0.027933
C     1.110505   -0.793268    0.168148    0.169895    0.039817   -0.022715
N    -0.143026   -1.233155    0.355193    0.079075   -0.085292    0.005855
C    -1.194216   -0.455164    0.338025    0.059604    0.024124   -0.009434
N    -0.950027    0.875181    0.110319   -0.094650   -0.062121    0.018716
C     0.231113    1.470068   -0.095002    0.159118    0.019329   -0.018212
O    -2.381020   -0.851087    0.514888   -0.034643    0.003853    0.002862
O     0.340476    2.699104   -0.294228   -0.004767   -0.077955    0.012425
H     2.247877   -1.176066    0.117526   -0.868072   -1.058558    0.247139
H     0.082167   -2.282211    0.497344   -0.993722    0.068961    0.081593
H     2.325697    1.183420   -0.252784    0.223555   -0.785719    0.098051
H    -1.871257    1.349074    0.126221    0.193792    0.327307   -0.069868
H    -2.503288   -1.807513    0.674871    0.078245   -0.005270   -0.008060
13
* Frequency(28) 1395.2489
C     1.453351    0.443145   -0.054506   -0.203303    0.309310   -0.027933
C     1.118368   -0.791425    0.167097    0.169895    0.039817   -0.022715
N    -0.139367   -1.237102    0.355464    0.079075   -0.085292    0.005855
C    -1.191457   -0.454047    0.337588    0.059604    0.024124   -0.009434
N    -0.954408    0.872306    0.111185   -0.094650   -0.062121    0.018716
C     0.238477    1.470962   -0.095845    0.159118    0.019329   -0.018212
O    -2.382624   -0.850908    0.515020   -0.034643    0.003853    0.002862
O     0.340255    2.695496   -0.293653   -0.004767   -0.077955    0.012425
H     2.207701   -1.225058    0.128964   -0.868072   -1.058558    0.247139
H     0.036176   -2.279019    0.501121   -0.993722    0.068961    0.081593
H     2.336043    1.147056   -0.248246    0.223555   -0.785719    0.098051
H    -1.862287    1.364223    0.122988    0.193792    0.327307   -0.069868
H    -2.499666   -1.807757    0.674498    0.078245   -0.005270   -0.008060
13
* Frequency(28) 1395.2489
C     1.437486    0.467282   -0.056686   -0.203303    0.309310   -0.027933
C     1.131625   -0.788318    0.165324    0.169895    0.039817   -0.022715
N    -0.133196   -1.243758    0.355921    0.079075   -0.085292    0.005855
C    -1.186806   -0.452165    0.336852    0.059604    0.024124   -0.009434
N    -0.961794    0.867458    0.112645   -0.094650   -0.062121    0.018716
C     0.250894    1.472470   -0.097266    0.159118    0.019329   -0.018212
O    -2.385327   -0.850608    0.515244   -0.034643    0.003853    0.002862
O     0.339883    2.689413   -0.292683   -0.004767   -0.077955    0.012425
H     2.139962   -1.307661    0.148249   -0.868072   -1.058558    0.247139
H    -0.041368   -2.273638    0.507488   -0.993722    0.068961    0.081593
H     2.353488    1.085743   -0.240595    0.223555   -0.785719    0.098051
H    -1.847165    1.389764    0.117536    0.193792    0.327307   -0.069868
H    -2.493561   -1.808169    0.673869    0.078245   -0.005270   -0.008060
13
* Frequency(28) 1395.2489
C     1.416886    0.498624   -0.059516   -0.203303    0.309310   -0.027933
C     1.148841   -0.784283    0.163023    0.169895    0.039817   -0.022715
N    -0.125183   -1.252401    0.356514    0.079075   -0.085292    0.005855
C    -1.180767   -0.449721    0.335896    0.059604    0.024124   -0.009434
N    -0.971384    0.861163    0.114542   -0.094650   -0.062121    0.018716
C     0.267017    1.474429   -0.099112    0.159118    0.019329   -0.018212
O    -2.388837   -0.850217    0.515534   -0.034643    0.003853    0.002862
O     0.339400    2.681514   -0.291424   -0.004767   -0.077955    0.012425
H     2.052000   -1.414924    0.173292   -0.868072   -1.058558    0.247139
H    -0.142062   -2.266650    0.515755   -0.993722    0.068961    0.081593
H     2.376141    1.006126   -0.230659    0.223555   -0.785719    0.098051
H    -1.827528    1.422930    0.110456    0.193792    0.327307   -0.069868
H    -2.485632   -1.808703    0.673052    0.078245   -0.005270   -0.008060
13
* Frequency(28) 1395.2489
C     1.393781    0.533776   -0.062691   -0.203303    0.309310   -0.027933
C     1.168148   -0.779758    0.160441    0.169895    0.039817   -0.022715
N    -0.116197   -1.262094    0.357179    0.079075   -0.085292    0.005855
C    -1.173993   -0.446979    0.334824    0.059604    0.024124   -0.009434
N    -0.982141    0.854104    0.116669   -0.094650   -0.062121    0.018716
C     0.285100    1.476626   -0.101181    0.159118    0.019329   -0.018212
O    -2.392774   -0.849779    0.515859   -0.034643    0.003853    0.002862
O     0.338858    2.672655   -0.290012   -0.004767   -0.077955    0.012425
H     1.953348   -1.535224    0.201378   -0.868072   -1.058558    0.247139
H    -0.254993   -2.258813    0.525028   -0.993722    0.068961    0.081593
H     2.401547    0.916834   -0.219517    0.223555   -0.785719    0.098051
H    -1.805505    1.460126    0.102516    0.193792    0.327307   -0.069868
H    -2.476740   -1.809302    0.672136    0.078245   -0.005270   -0.008060
