13
* (null), Energy   -1000.0000000
C     1.393781    0.533776   -0.062691    0.118995    0.040381   -0.017784
C     1.168148   -0.779758    0.160441   -0.088343    0.081485   -0.004019
N    -0.116197   -1.262094    0.357179    0.000936   -0.001105    0.000096
C    -1.173993   -0.446979    0.334824    0.002255   -0.001301   -0.000022
N    -0.982141    0.854104    0.116669   -0.000433    0.000438   -0.000026
C     0.285100    1.476626   -0.101181   -0.003479    0.001845    0.000051
O    -2.392774   -0.849779    0.515859   -0.000342    0.000140   -0.000001
O     0.338858    2.672655   -0.290012    0.000445   -0.000457    0.000039
H     1.953348   -1.535224    0.201378    0.989997   -0.942614    0.049873
H    -0.254993   -2.258813    0.525028   -0.007150    0.004430    0.000014
H     2.401547    0.916834   -0.219517   -1.342128   -0.503779    0.207669
H    -1.805505    1.460126    0.102516   -0.000359    0.000047    0.000018
H    -2.476740   -1.809302    0.672136    0.000378   -0.002381    0.000315
13
* Frequency(34) 3241.9600
C     1.407305    0.538365   -0.064712    0.118995    0.040381   -0.017784
C     1.158109   -0.770498    0.159984   -0.088343    0.081485   -0.004019
N    -0.116090   -1.262219    0.357190    0.000936   -0.001105    0.000096
C    -1.173737   -0.447127    0.334822    0.002255   -0.001301   -0.000022
N    -0.982190    0.854153    0.116666   -0.000433    0.000438   -0.000026
C     0.284705    1.476835   -0.101176   -0.003479    0.001845    0.000051
O    -2.392813   -0.849764    0.515859   -0.000342    0.000140   -0.000001
O     0.338909    2.672603   -0.290008    0.000445   -0.000457    0.000039
H     2.065856   -1.642347    0.207046    0.989997   -0.942614    0.049873
H    -0.255806   -2.258310    0.525030   -0.007150    0.004430    0.000014
H     2.249021    0.859582   -0.195916   -1.342128   -0.503779    0.207669
H    -1.805546    1.460132    0.102518   -0.000359    0.000047    0.000018
H    -2.476697   -1.809572    0.672172    0.000378   -0.002381    0.000315
13
* Frequency(34) 3241.9600
C     1.419362    0.542457   -0.066514    0.118995    0.040381   -0.017784
C     1.149157   -0.762241    0.159577   -0.088343    0.081485   -0.004019
N    -0.115996   -1.262331    0.357200    0.000936   -0.001105    0.000096
C    -1.173508   -0.447259    0.334819    0.002255   -0.001301   -0.000022
N    -0.982234    0.854198    0.116663   -0.000433    0.000438   -0.000026
C     0.284352    1.477022   -0.101170   -0.003479    0.001845    0.000051
O    -2.392848   -0.849749    0.515859   -0.000342    0.000140   -0.000001
O     0.338954    2.672556   -0.290004    0.000445   -0.000457    0.000039
H     2.166172   -1.737862    0.212099    0.989997   -0.942614    0.049873
H    -0.256530   -2.257861    0.525031   -0.007150    0.004430    0.000014
H     2.113023    0.808534   -0.174873   -1.342128   -0.503779    0.207669
H    -1.805582    1.460136    0.102520   -0.000359    0.000047    0.000018
H    -2.476659   -1.809813    0.672204    0.000378   -0.002381    0.000315
13
* Frequency(34) 3241.9600
C     1.428648    0.545608   -0.067901    0.118995    0.040381   -0.017784
C     1.142263   -0.755883    0.159263   -0.088343    0.081485   -0.004019
N    -0.115923   -1.262418    0.357208    0.000936   -0.001105    0.000096
C    -1.173332   -0.447360    0.334818    0.002255   -0.001301   -0.000022
N    -0.982268    0.854232    0.116661   -0.000433    0.000438   -0.000026
C     0.284081    1.477166   -0.101166   -0.003479    0.001845    0.000051
O    -2.392875   -0.849738    0.515859   -0.000342    0.000140   -0.000001
O     0.338989    2.672521   -0.290001    0.000445   -0.000457    0.000039
H     2.243426   -1.811418    0.215991    0.989997   -0.942614    0.049873
H    -0.257088   -2.257515    0.525032   -0.007150    0.004430    0.000014
H     2.008292    0.769222   -0.158668   -1.342128   -0.503779    0.207669
H    -1.805610    1.460140    0.102521   -0.000359    0.000047    0.000018
H    -2.476629   -1.809999    0.672228    0.000378   -0.002381    0.000315
13
* Frequency(34) 3241.9600
C     1.434155    0.547477   -0.068725    0.118995    0.040381   -0.017784
C     1.138174   -0.752111    0.159077   -0.088343    0.081485   -0.004019
N    -0.115879   -1.262469    0.357212    0.000936   -0.001105    0.000096
C    -1.173228   -0.447420    0.334817    0.002255   -0.001301   -0.000022
N    -0.982288    0.854252    0.116660   -0.000433    0.000438   -0.000026
C     0.283920    1.477252   -0.101164   -0.003479    0.001845    0.000051
O    -2.392890   -0.849732    0.515859   -0.000342    0.000140   -0.000001
O     0.339009    2.672500   -0.289999    0.000445   -0.000457    0.000039
H     2.289245   -1.855043    0.218299    0.989997   -0.942614    0.049873
H    -0.257419   -2.257310    0.525033   -0.007150    0.004430    0.000014
H     1.946176    0.745906   -0.149057   -1.342128   -0.503779    0.207669
H    -1.805627    1.460142    0.102522   -0.000359    0.000047    0.000018
H    -2.476612   -1.810109    0.672243    0.000378   -0.002381    0.000315
13
* Frequency(34) 3241.9600
C     1.435287    0.547861   -0.068894    0.118995    0.040381   -0.017784
C     1.137334   -0.751336    0.159039   -0.088343    0.081485   -0.004019
N    -0.115870   -1.262479    0.357213    0.000936   -0.001105    0.000096
C    -1.173206   -0.447433    0.334816    0.002255   -0.001301   -0.000022
N    -0.982292    0.854256    0.116660   -0.000433    0.000438   -0.000026
C     0.283887    1.477269   -0.101164   -0.003479    0.001845    0.000051
O    -2.392894   -0.849731    0.515859   -0.000342    0.000140   -0.000001
O     0.339013    2.672495   -0.289999    0.000445   -0.000457    0.000039
H     2.298664   -1.864012    0.218774    0.989997   -0.942614    0.049873
H    -0.257487   -2.257268    0.525033   -0.007150    0.004430    0.000014
H     1.933406    0.741113   -0.147081   -1.342128   -0.503779    0.207669
H    -1.805630    1.460143    0.102522   -0.000359    0.000047    0.000018
H    -2.476608   -1.810132    0.672246    0.000378   -0.002381    0.000315
13
* Frequency(34) 3241.9600
C     1.431922    0.546719   -0.068391    0.118995    0.040381   -0.017784
C     1.139832   -0.753641    0.159153   -0.088343    0.081485   -0.004019
N    -0.115897   -1.262448    0.357210    0.000936   -0.001105    0.000096
C    -1.173270   -0.447396    0.334817    0.002255   -0.001301   -0.000022
N    -0.982280    0.854244    0.116660   -0.000433    0.000438   -0.000026
C     0.283985    1.477217   -0.101165   -0.003479    0.001845    0.000051
O    -2.392884   -0.849735    0.515859   -0.000342    0.000140   -0.000001
O     0.339001    2.672508   -0.290000    0.000445   -0.000457    0.000039
H     2.270663   -1.837351    0.217363    0.989997   -0.942614    0.049873
H    -0.257285   -2.257393    0.525033   -0.007150    0.004430    0.000014
H     1.971367    0.755362   -0.152954   -1.342128   -0.503779    0.207669
H    -1.805620    1.460141    0.102522   -0.000359    0.000047    0.000018
H    -2.476619   -1.810065    0.672237    0.000378   -0.002381    0.000315
13
* Frequency(34) 3241.9600
C     1.424423    0.544174   -0.067270    0.118995    0.040381   -0.017784
C     1.145400   -0.758776    0.159406   -0.088343    0.081485   -0.004019
N    -0.115956   -1.262378    0.357204    0.000936   -0.001105    0.000096
C    -1.173412   -0.447314    0.334818    0.002255   -0.001301   -0.000022
N    -0.982252    0.854216    0.116662   -0.000433    0.000438   -0.000026
C     0.284204    1.477101   -0.101168   -0.003479    0.001845    0.000051
O    -2.392862   -0.849743    0.515859   -0.000342    0.000140   -0.000001
O     0.338973    2.672537   -0.290002    0.000445   -0.000457    0.000039
H     2.208276   -1.777950    0.214220    0.989997   -0.942614    0.049873
H    -0.256834   -2.257673    0.525032   -0.007150    0.004430    0.000014
H     2.055944    0.787109   -0.166041   -1.342128   -0.503779    0.207669
H    -1.805597    1.460138    0.102520   -0.000359    0.000047    0.000018
H    -2.476643   -1.809915    0.672217    0.000378   -0.002381    0.000315
13
* Frequency(34) 3241.9600
C     1.413604    0.540503   -0.065653    0.118995    0.040381   -0.017784
C     1.153432   -0.766185    0.159772   -0.088343    0.081485   -0.004019
N    -0.116041   -1.262278    0.357195    0.000936   -0.001105    0.000096
C    -1.173617   -0.447196    0.334820    0.002255   -0.001301   -0.000022
N    -0.982213    0.854177    0.116665   -0.000433    0.000438   -0.000026
C     0.284521    1.476933   -0.101173   -0.003479    0.001845    0.000051
O    -2.392831   -0.849756    0.515859   -0.000342    0.000140   -0.000001
O     0.338932    2.672578   -0.290006    0.000445   -0.000457    0.000039
H     2.118264   -1.692246    0.209686    0.989997   -0.942614    0.049873
H    -0.256184   -2.258075    0.525030   -0.007150    0.004430    0.000014
H     2.177973    0.832913   -0.184923   -1.342128   -0.503779    0.207669
H    -1.805565    1.460134    0.102519   -0.000359    0.000047    0.000018
H    -2.476677   -1.809698    0.672189    0.000378   -0.002381    0.000315
13
* Frequency(34) 3241.9600
C     1.400636    0.536102   -0.063715    0.118995    0.040381   -0.017784
C     1.163059   -0.775064    0.160210   -0.088343    0.081485   -0.004019
N    -0.116143   -1.262158    0.357185    0.000936   -0.001105    0.000096
C    -1.173863   -0.447054    0.334823    0.002255   -0.001301   -0.000022
N    -0.982166    0.854129    0.116667   -0.000433    0.000438   -0.000026
C     0.284900    1.476732   -0.101178   -0.003479    0.001845    0.000051
O    -2.392794   -0.849771    0.515859   -0.000342    0.000140   -0.000001
O     0.338884    2.672628   -0.290010    0.000445   -0.000457    0.000039
H     2.010380   -1.589526    0.204251    0.989997   -0.942614    0.049873
H    -0.255405   -2.258558    0.525029   -0.007150    0.004430    0.000014
H     2.324229    0.887812   -0.207553   -1.342128   -0.503779    0.207669
H    -1.805526    1.460129    0.102517   -0.000359    0.000047    0.000018
H    -2.476718   -1.809439    0.672154    0.000378   -0.002381    0.000315
13
* Frequency(34) 3241.9600
C     1.386926    0.531449   -0.061666    0.118995    0.040381   -0.017784
C     1.173238   -0.784453    0.160673   -0.088343    0.081485   -0.004019
N    -0.116251   -1.262030    0.357174    0.000936   -0.001105    0.000096
C    -1.174123   -0.446904    0.334825    0.002255   -0.001301   -0.000022
N    -0.982116    0.854078    0.116670   -0.000433    0.000438   -0.000026
C     0.285300    1.476519   -0.101184   -0.003479    0.001845    0.000051
O    -2.392755   -0.849787    0.515859   -0.000342    0.000140   -0.000001
O     0.338833    2.672681   -0.290014    0.000445   -0.000457    0.000039
H     1.896316   -1.480922    0.198505    0.989997   -0.942614    0.049873
H    -0.254581   -2.259069    0.525027   -0.007150    0.004430    0.000014
H     2.478864    0.945855   -0.231480   -1.342128   -0.503779    0.207669
H    -1.805484    1.460124    0.102515   -0.000359    0.000047    0.000018
H    -2.476762   -1.809164    0.672118    0.000378   -0.002381    0.000315
13
* Frequency(34) 3241.9600
C     1.373959    0.527049   -0.059728    0.118995    0.040381   -0.017784
C     1.182865   -0.793332    0.161111   -0.088343    0.081485   -0.004019
N    -0.116353   -1.261910    0.357164    0.000936   -0.001105    0.000096
C    -1.174369   -0.446762    0.334828    0.002255   -0.001301   -0.000022
N    -0.982069    0.854031    0.116673   -0.000433    0.000438   -0.000026
C     0.285680    1.476318   -0.101190   -0.003479    0.001845    0.000051
O    -2.392717   -0.849803    0.515859   -0.000342    0.000140   -0.000001
O     0.338784    2.672731   -0.290018    0.000445   -0.000457    0.000039
H     1.788433   -1.378202    0.193070    0.989997   -0.942614    0.049873
H    -0.253802   -2.259551    0.525026   -0.007150    0.004430    0.000014
H     2.625120    1.000754   -0.254110   -1.342128   -0.503779    0.207669
H    -1.805445    1.460119    0.102513   -0.000359    0.000047    0.000018
H    -2.476803   -1.808905    0.672084    0.000378   -0.002381    0.000315
13
* Frequency(34) 3241.9600
C     1.363140    0.523377   -0.058111    0.118995    0.040381   -0.017784
C     1.190897   -0.800741    0.161476   -0.088343    0.081485   -0.004019
N    -0.116438   -1.261809    0.357155    0.000936   -0.001105    0.000096
C    -1.174574   -0.446644    0.334830    0.002255   -0.001301   -0.000022
N    -0.982029    0.853991    0.116676   -0.000433    0.000438   -0.000026
C     0.285996    1.476151   -0.101195   -0.003479    0.001845    0.000051
O    -2.392686   -0.849815    0.515859   -0.000342    0.000140   -0.000001
O     0.338744    2.672772   -0.290022    0.000445   -0.000457    0.000039
H     1.698421   -1.292498    0.188535    0.989997   -0.942614    0.049873
H    -0.253152   -2.259954    0.525024   -0.007150    0.004430    0.000014
H     2.747149    1.046558   -0.272992   -1.342128   -0.503779    0.207669
H    -1.805413    1.460114    0.102511   -0.000359    0.000047    0.000018
H    -2.476837   -1.808688    0.672055    0.000378   -0.002381    0.000315
13
* Frequency(34) 3241.9600
C     1.355641    0.520833   -0.056990    0.118995    0.040381   -0.017784
C     1.196464   -0.805876    0.161729   -0.088343    0.081485   -0.004019
N    -0.116497   -1.261740    0.357149    0.000936   -0.001105    0.000096
C    -1.174716   -0.446562    0.334831    0.002255   -0.001301   -0.000022
N    -0.982002    0.853963    0.116677   -0.000433    0.000438   -0.000026
C     0.286215    1.476034   -0.101198   -0.003479    0.001845    0.000051
O    -2.392665   -0.849824    0.515859   -0.000342    0.000140   -0.000001
O     0.338716    2.672801   -0.290024    0.000445   -0.000457    0.000039
H     1.636034   -1.233097    0.185392    0.989997   -0.942614    0.049873
H    -0.252701   -2.260233    0.525024   -0.007150    0.004430    0.000014
H     2.831726    1.078305   -0.286079   -1.342128   -0.503779    0.207669
H    -1.805390    1.460111    0.102510   -0.000359    0.000047    0.000018
H    -2.476861   -1.808538    0.672035    0.000378   -0.002381    0.000315
13
* Frequency(34) 3241.9600
C     1.352276    0.519691   -0.056487    0.118995    0.040381   -0.017784
C     1.198963   -0.808181    0.161843   -0.088343    0.081485   -0.004019
N    -0.116523   -1.261708    0.357146    0.000936   -0.001105    0.000096
C    -1.174779   -0.446525    0.334832    0.002255   -0.001301   -0.000022
N    -0.981990    0.853951    0.116678   -0.000433    0.000438   -0.000026
C     0.286314    1.475982   -0.101199   -0.003479    0.001845    0.000051
O    -2.392655   -0.849828    0.515859   -0.000342    0.000140   -0.000001
O     0.338703    2.672814   -0.290026    0.000445   -0.000457    0.000039
H     1.608033   -1.206436    0.183982    0.989997   -0.942614    0.049873
H    -0.252499   -2.260359    0.525023   -0.007150    0.004430    0.000014
H     2.869687    1.092554   -0.291952   -1.342128   -0.503779    0.207669
H    -1.805380    1.460110    0.102510   -0.000359    0.000047    0.000018
H    -2.476872   -1.808471    0.672026    0.000378   -0.002381    0.000315
13
* Frequency(34) 3241.9600
C     1.353408    0.520075   -0.056656    0.118995    0.040381   -0.017784
C     1.198122   -0.807406    0.161805   -0.088343    0.081485   -0.004019
N    -0.116514   -1.261719    0.357147    0.000936   -0.001105    0.000096
C    -1.174758   -0.446538    0.334832    0.002255   -0.001301   -0.000022
N    -0.981994    0.853955    0.116678   -0.000433    0.000438   -0.000026
C     0.286280    1.476000   -0.101199   -0.003479    0.001845    0.000051
O    -2.392658   -0.849827    0.515859   -0.000342    0.000140   -0.000001
O     0.338707    2.672810   -0.290025    0.000445   -0.000457    0.000039
H     1.617452   -1.215404    0.184456    0.989997   -0.942614    0.049873
H    -0.252567   -2.260317    0.525023   -0.007150    0.004430    0.000014
H     2.856917    1.087761   -0.289977   -1.342128   -0.503779    0.207669
H    -1.805383    1.460111    0.102510   -0.000359    0.000047    0.000018
H    -2.476868   -1.808494    0.672029    0.000378   -0.002381    0.000315
13
* Frequency(34) 3241.9600
C     1.358915    0.521944   -0.057480    0.118995    0.040381   -0.017784
C     1.194034   -0.803634    0.161619   -0.088343    0.081485   -0.004019
N    -0.116471   -1.261770    0.357151    0.000936   -0.001105    0.000096
C    -1.174654   -0.446598    0.334831    0.002255   -0.001301   -0.000022
N    -0.982014    0.853975    0.116677   -0.000433    0.000438   -0.000026
C     0.286119    1.476085   -0.101196   -0.003479    0.001845    0.000051
O    -2.392674   -0.849820    0.515859   -0.000342    0.000140   -0.000001
O     0.338728    2.672788   -0.290023    0.000445   -0.000457    0.000039
H     1.663271   -1.259030    0.186764    0.989997   -0.942614    0.049873
H    -0.252898   -2.260112    0.525024   -0.007150    0.004430    0.000014
H     2.794801    1.064445   -0.280365   -1.342128   -0.503779    0.207669
H    -1.805400    1.460113    0.102511   -0.000359    0.000047    0.000018
H    -2.476851   -1.808604    0.672044    0.000378   -0.002381    0.000315
13
* Frequency(34) 3241.9600
C     1.368201    0.525095   -0.058867    0.118995    0.040381   -0.017784
C     1.187140   -0.797276    0.161305   -0.088343    0.081485   -0.004019
N    -0.116398   -1.261856    0.357159    0.000936   -0.001105    0.000096
C    -1.174478   -0.446699    0.334829    0.002255   -0.001301   -0.000022
N    -0.982048    0.854010    0.116675   -0.000433    0.000438   -0.000026
C     0.285848    1.476229   -0.101192   -0.003479    0.001845    0.000051
O    -2.392701   -0.849809    0.515859   -0.000342    0.000140   -0.000001
O     0.338763    2.672753   -0.290020    0.000445   -0.000457    0.000039
H     1.740524   -1.332586    0.190656    0.989997   -0.942614    0.049873
H    -0.253456   -2.259766    0.525025   -0.007150    0.004430    0.000014
H     2.690070    1.025133   -0.264160   -1.342128   -0.503779    0.207669
H    -1.805428    1.460116    0.102512   -0.000359    0.000047    0.000018
H    -2.476821   -1.808790    0.672068    0.000378   -0.002381    0.000315
13
* Frequency(34) 3241.9600
C     1.380258    0.529187   -0.060669    0.118995    0.040381   -0.017784
C     1.178188   -0.789019    0.160898   -0.088343    0.081485   -0.004019
N    -0.116303   -1.261968    0.357169    0.000936   -0.001105    0.000096
C    -1.174249   -0.446831    0.334827    0.002255   -0.001301   -0.000022
N    -0.982092    0.854054    0.116672   -0.000433    0.000438   -0.000026
C     0.285495    1.476416   -0.101187   -0.003479    0.001845    0.000051
O    -2.392735   -0.849795    0.515859   -0.000342    0.000140   -0.000001
O     0.338808    2.672706   -0.290016    0.000445   -0.000457    0.000039
H     1.840840   -1.428101    0.195710    0.989997   -0.942614    0.049873
H    -0.254181   -2.259317    0.525027   -0.007150    0.004430    0.000014
H     2.554072    0.974085   -0.243117   -1.342128   -0.503779    0.207669
H    -1.805464    1.460121    0.102514   -0.000359    0.000047    0.000018
H    -2.476783   -1.809031    0.672100    0.000378   -0.002381    0.000315
13
* Frequency(34) 3241.9600
C     1.393781    0.533776   -0.062691    0.118995    0.040381   -0.017784
C     1.168148   -0.779758    0.160441   -0.088343    0.081485   -0.004019
N    -0.116197   -1.262094    0.357179    0.000936   -0.001105    0.000096
C    -1.173993   -0.446979    0.334824    0.002255   -0.001301   -0.000022
N    -0.982141    0.854104    0.116669   -0.000433    0.000438   -0.000026
C     0.285100    1.476626   -0.101181   -0.003479    0.001845    0.000051
O    -2.392774   -0.849779    0.515859   -0.000342    0.000140   -0.000001
O     0.338858    2.672655   -0.290012    0.000445   -0.000457    0.000039
H     1.953348   -1.535224    0.201378    0.989997   -0.942614    0.049873
H    -0.254993   -2.258813    0.525028   -0.007150    0.004430    0.000014
H     2.401547    0.916834   -0.219517   -1.342128   -0.503779    0.207669
H    -1.805505    1.460126    0.102516   -0.000359    0.000047    0.000018
H    -2.476740   -1.809302    0.672136    0.000378   -0.002381    0.000315
