13
* (null), Energy   -1000.0000000
C     1.393781    0.533776   -0.062691   -0.024545   -0.012255    0.004249
C     1.168148   -0.779758    0.160441    0.068472   -0.048704    0.001156
N    -0.116197   -1.262094    0.357179   -0.067503    0.032926    0.001316
C    -1.173993   -0.446979    0.334824   -0.282484   -0.129022    0.046801
N    -0.982141    0.854104    0.116669   -0.197553   -0.269237    0.060750
C     0.285100    1.476626   -0.101181    0.028456   -0.019470    0.000140
O    -2.392774   -0.849779    0.515859    0.226647    0.130636   -0.041914
O     0.338858    2.672655   -0.290012    0.029823    0.129397   -0.022726
H     1.953348   -1.535224    0.201378    0.259263    0.128881   -0.045316
H    -0.254993   -2.258813    0.525028    0.366867   -0.029794   -0.030377
H     2.401547    0.916834   -0.219517   -0.040735    0.025264    0.000476
H    -1.805505    1.460126    0.102516    1.061133    1.411135   -0.321267
H    -2.476740   -1.809302    0.672136    0.469430    0.116745   -0.063745
13
* Frequency(27) 1372.7668
C     1.390992    0.532383   -0.062208   -0.024545   -0.012255    0.004249
C     1.175930   -0.785294    0.160573    0.068472   -0.048704    0.001156
N    -0.123868   -1.258352    0.357329   -0.067503    0.032926    0.001316
C    -1.206096   -0.461642    0.340143   -0.282484   -0.129022    0.046801
N    -1.004592    0.823506    0.123573   -0.197553   -0.269237    0.060750
C     0.288334    1.474413   -0.101165    0.028456   -0.019470    0.000140
O    -2.367017   -0.834933    0.511096    0.226647    0.130636   -0.041914
O     0.342247    2.687360   -0.292595    0.029823    0.129397   -0.022726
H     1.982812   -1.520577    0.196228    0.259263    0.128881   -0.045316
H    -0.213301   -2.262199    0.521576    0.366867   -0.029794   -0.030377
H     2.396917    0.919705   -0.219462   -0.040735    0.025264    0.000476
H    -1.684913    1.620494    0.066005    1.061133    1.411135   -0.321267
H    -2.423392   -1.796034    0.664892    0.469430    0.116745   -0.063745
13
* Frequency(27) 1372.7668
C     1.388505    0.531141   -0.061777   -0.024545   -0.012255    0.004249
C     1.182868   -0.790229    0.160690    0.068472   -0.048704    0.001156
N    -0.130708   -1.255016    0.357462   -0.067503    0.032926    0.001316
C    -1.234720   -0.474715    0.344885   -0.282484   -0.129022    0.046801
N    -1.024610    0.796225    0.129729   -0.197553   -0.269237    0.060750
C     0.291217    1.472440   -0.101151    0.028456   -0.019470    0.000140
O    -2.344051   -0.821696    0.506849    0.226647    0.130636   -0.041914
O     0.345269    2.700472   -0.294897    0.029823    0.129397   -0.022726
H     2.009083   -1.507518    0.191636    0.259263    0.128881   -0.045316
H    -0.176126   -2.265218    0.518498    0.366867   -0.029794   -0.030377
H     2.392789    0.922265   -0.219414   -0.040735    0.025264    0.000476
H    -1.577388    1.763484    0.033452    1.061133    1.411135   -0.321267
H    -2.375825   -1.784204    0.658433    0.469430    0.116745   -0.063745
13
* Frequency(27) 1372.7668
C     1.386590    0.530185   -0.061446   -0.024545   -0.012255    0.004249
C     1.188211   -0.794029    0.160780    0.068472   -0.048704    0.001156
N    -0.135976   -1.252446    0.357565   -0.067503    0.032926    0.001316
C    -1.256763   -0.484783    0.348537   -0.282484   -0.129022    0.046801
N    -1.040026    0.775215    0.134469   -0.197553   -0.269237    0.060750
C     0.293438    1.470921   -0.101140    0.028456   -0.019470    0.000140
O    -2.326365   -0.811502    0.503578    0.226647    0.130636   -0.041914
O     0.347597    2.710569   -0.296671    0.029823    0.129397   -0.022726
H     2.029315   -1.497461    0.188100    0.259263    0.128881   -0.045316
H    -0.147498   -2.267543    0.516127    0.366867   -0.029794   -0.030377
H     2.389611    0.924236   -0.219377   -0.040735    0.025264    0.000476
H    -1.494584    1.873600    0.008382    1.061133    1.411135   -0.321267
H    -2.339193   -1.775094    0.653458    0.469430    0.116745   -0.063745
13
* Frequency(27) 1372.7668
C     1.385454    0.529618   -0.061249   -0.024545   -0.012255    0.004249
C     1.191380   -0.796283    0.160833    0.068472   -0.048704    0.001156
N    -0.139100   -1.250923    0.357626   -0.067503    0.032926    0.001316
C    -1.269837   -0.490755    0.350703   -0.282484   -0.129022    0.046801
N    -1.049169    0.762754    0.137281   -0.197553   -0.269237    0.060750
C     0.294755    1.470020   -0.101134    0.028456   -0.019470    0.000140
O    -2.315875   -0.805456    0.501638    0.226647    0.130636   -0.041914
O     0.348977    2.716558   -0.297723    0.029823    0.129397   -0.022726
H     2.041314   -1.491496    0.186002    0.259263    0.128881   -0.045316
H    -0.130519   -2.268922    0.514722    0.366867   -0.029794   -0.030377
H     2.387725    0.925406   -0.219355   -0.040735    0.025264    0.000476
H    -1.445473    1.938910   -0.006487    1.061133    1.411135   -0.321267
H    -2.317467   -1.769691    0.650508    0.469430    0.116745   -0.063745
13
* Frequency(27) 1372.7668
C     1.385220    0.529501   -0.061208   -0.024545   -0.012255    0.004249
C     1.192032   -0.796747    0.160844    0.068472   -0.048704    0.001156
N    -0.139742   -1.250609    0.357638   -0.067503    0.032926    0.001316
C    -1.272525   -0.491982    0.351149   -0.282484   -0.129022    0.046801
N    -1.051048    0.760193    0.137859   -0.197553   -0.269237    0.060750
C     0.295026    1.469835   -0.101132    0.028456   -0.019470    0.000140
O    -2.313719   -0.804213    0.501239    0.226647    0.130636   -0.041914
O     0.349261    2.717789   -0.297939    0.029823    0.129397   -0.022726
H     2.043781   -1.490269    0.185571    0.259263    0.128881   -0.045316
H    -0.127028   -2.269206    0.514433    0.366867   -0.029794   -0.030377
H     2.387338    0.925646   -0.219350   -0.040735    0.025264    0.000476
H    -1.435377    1.952337   -0.009544    1.061133    1.411135   -0.321267
H    -2.313001   -1.768580    0.649902    0.469430    0.116745   -0.063745
13
* Frequency(27) 1372.7668
C     1.385914    0.529848   -0.061329   -0.024545   -0.012255    0.004249
C     1.190095   -0.795369    0.160812    0.068472   -0.048704    0.001156
N    -0.137833   -1.251541    0.357601   -0.067503    0.032926    0.001316
C    -1.264535   -0.488333    0.349825   -0.282484   -0.129022    0.046801
N    -1.045461    0.767808    0.136140   -0.197553   -0.269237    0.060750
C     0.294221    1.470385   -0.101136    0.028456   -0.019470    0.000140
O    -2.320129   -0.807908    0.502425    0.226647    0.130636   -0.041914
O     0.348417    2.714129   -0.297296    0.029823    0.129397   -0.022726
H     2.036448   -1.493915    0.186853    0.259263    0.128881   -0.045316
H    -0.137405   -2.268363    0.515292    0.366867   -0.029794   -0.030377
H     2.388490    0.924931   -0.219364   -0.040735    0.025264    0.000476
H    -1.465390    1.912424   -0.000457    1.061133    1.411135   -0.321267
H    -2.326278   -1.771882    0.651705    0.469430    0.116745   -0.063745
13
* Frequency(27) 1372.7668
C     1.387461    0.530620   -0.061596   -0.024545   -0.012255    0.004249
C     1.185780   -0.792300    0.160739    0.068472   -0.048704    0.001156
N    -0.133579   -1.253615    0.357518   -0.067503    0.032926    0.001316
C    -1.246733   -0.480203    0.346876   -0.282484   -0.129022    0.046801
N    -1.033011    0.784774    0.132312   -0.197553   -0.269237    0.060750
C     0.292428    1.471612   -0.101145    0.028456   -0.019470    0.000140
O    -2.334412   -0.816140    0.505066    0.226647    0.130636   -0.041914
O     0.346538    2.705975   -0.295864    0.029823    0.129397   -0.022726
H     2.020109   -1.502036    0.189709    0.259263    0.128881   -0.045316
H    -0.160524   -2.266485    0.517206    0.366867   -0.029794   -0.030377
H     2.391057    0.923339   -0.219394   -0.040735    0.025264    0.000476
H    -1.532260    1.823498    0.019789    1.061133    1.411135   -0.321267
H    -2.355860   -1.779239    0.655722    0.469430    0.116745   -0.063745
13
* Frequency(27) 1372.7668
C     1.389693    0.531734   -0.061983   -0.024545   -0.012255    0.004249
C     1.179555   -0.787872    0.160634    0.068472   -0.048704    0.001156
N    -0.127442   -1.256609    0.357399   -0.067503    0.032926    0.001316
C    -1.221050   -0.468472    0.342620   -0.282484   -0.129022    0.046801
N    -1.015050    0.809254    0.126789   -0.197553   -0.269237    0.060750
C     0.289840    1.473382   -0.101158    0.028456   -0.019470    0.000140
O    -2.355019   -0.828018    0.508877    0.226647    0.130636   -0.041914
O     0.343826    2.694210   -0.293798    0.029823    0.129397   -0.022726
H     1.996537   -1.513755    0.193829    0.259263    0.128881   -0.045316
H    -0.193880   -2.263776    0.519968    0.366867   -0.029794   -0.030377
H     2.394761    0.921042   -0.219437   -0.040735    0.025264    0.000476
H    -1.628740    1.695195    0.048999    1.061133    1.411135   -0.321267
H    -2.398542   -1.789854    0.661517    0.469430    0.116745   -0.063745
13
* Frequency(27) 1372.7668
C     1.392367    0.533070   -0.062446   -0.024545   -0.012255    0.004249
C     1.172093   -0.782564    0.160508    0.068472   -0.048704    0.001156
N    -0.120085   -1.260197    0.357255   -0.067503    0.032926    0.001316
C    -1.190266   -0.454412    0.337520   -0.282484   -0.129022    0.046801
N    -0.993522    0.838593    0.120169   -0.197553   -0.269237    0.060750
C     0.286739    1.475504   -0.101173    0.028456   -0.019470    0.000140
O    -2.379718   -0.842254    0.513444    0.226647    0.130636   -0.041914
O     0.340576    2.680109   -0.291321    0.029823    0.129397   -0.022726
H     1.968284   -1.527799    0.198767    0.259263    0.128881   -0.045316
H    -0.233859   -2.260530    0.523278    0.366867   -0.029794   -0.030377
H     2.399200    0.918289   -0.219489   -0.040735    0.025264    0.000476
H    -1.744375    1.541419    0.084008    1.061133    1.411135   -0.321267
H    -2.449697   -1.802576    0.668464    0.469430    0.116745   -0.063745
13
* Frequency(27) 1372.7668
C     1.395195    0.534482   -0.062935   -0.024545   -0.012255    0.004249
C     1.164204   -0.776953    0.160374    0.068472   -0.048704    0.001156
N    -0.112308   -1.263991    0.357104   -0.067503    0.032926    0.001316
C    -1.157719   -0.439546    0.332128   -0.282484   -0.129022    0.046801
N    -0.970760    0.869614    0.113169   -0.197553   -0.269237    0.060750
C     0.283461    1.477747   -0.101189    0.028456   -0.019470    0.000140
O    -2.405831   -0.857305    0.518274    0.226647    0.130636   -0.041914
O     0.337140    2.665200   -0.288703    0.029823    0.129397   -0.022726
H     1.938413   -1.542649    0.203988    0.259263    0.128881   -0.045316
H    -0.276128   -2.257097    0.526778    0.366867   -0.029794   -0.030377
H     2.403893    0.915378   -0.219544   -0.040735    0.025264    0.000476
H    -1.866635    1.378834    0.121023    1.061133    1.411135   -0.321267
H    -2.503783   -1.816027    0.675808    0.469430    0.116745   -0.063745
13
* Frequency(27) 1372.7668
C     1.397870    0.535817   -0.063398   -0.024545   -0.012255    0.004249
C     1.156742   -0.771645    0.160248    0.068472   -0.048704    0.001156
N    -0.104952   -1.267579    0.356960   -0.067503    0.032926    0.001316
C    -1.126936   -0.425486    0.327028   -0.282484   -0.129022    0.046801
N    -0.949232    0.898954    0.106549   -0.197553   -0.269237    0.060750
C     0.280360    1.479869   -0.101205    0.028456   -0.019470    0.000140
O    -2.430530   -0.871541    0.522841    0.226647    0.130636   -0.041914
O     0.333890    2.651099   -0.286226    0.029823    0.129397   -0.022726
H     1.910160   -1.556693    0.208927    0.259263    0.128881   -0.045316
H    -0.316106   -2.253850    0.530088    0.366867   -0.029794   -0.030377
H     2.408332    0.912625   -0.219596   -0.040735    0.025264    0.000476
H    -1.982270    1.225057    0.156033    1.061133    1.411135   -0.321267
H    -2.554938   -1.828749    0.682755    0.469430    0.116745   -0.063745
13
* Frequency(27) 1372.7668
C     1.400102    0.536931   -0.063785   -0.024545   -0.012255    0.004249
C     1.150516   -0.767217    0.160143    0.068472   -0.048704    0.001156
N    -0.098815   -1.270572    0.356841   -0.067503    0.032926    0.001316
C    -1.101252   -0.413755    0.322773   -0.282484   -0.129022    0.046801
N    -0.931270    0.923433    0.101026   -0.197553   -0.269237    0.060750
C     0.277772    1.481639   -0.101218    0.028456   -0.019470    0.000140
O    -2.451137   -0.883419    0.526652    0.226647    0.130636   -0.041914
O     0.331179    2.639334   -0.284160    0.029823    0.129397   -0.022726
H     1.886587   -1.568411    0.213047    0.259263    0.128881   -0.045316
H    -0.349463   -2.251141    0.532850    0.366867   -0.029794   -0.030377
H     2.412036    0.910328   -0.219639   -0.040735    0.025264    0.000476
H    -2.078750    1.096754    0.185243    1.061133    1.411135   -0.321267
H    -2.597620   -1.839364    0.688551    0.469430    0.116745   -0.063745
13
* Frequency(27) 1372.7668
C     1.401648    0.537704   -0.064052   -0.024545   -0.012255    0.004249
C     1.146202   -0.764148    0.160071    0.068472   -0.048704    0.001156
N    -0.094561   -1.272647    0.356758   -0.067503    0.032926    0.001316
C    -1.083451   -0.405625    0.319823   -0.282484   -0.129022    0.046801
N    -0.918821    0.940400    0.097197   -0.197553   -0.269237    0.060750
C     0.275979    1.482866   -0.101226    0.028456   -0.019470    0.000140
O    -2.465419   -0.891651    0.529293    0.226647    0.130636   -0.041914
O     0.329299    2.631180   -0.282728    0.029823    0.129397   -0.022726
H     1.870249   -1.576533    0.215903    0.259263    0.128881   -0.045316
H    -0.372582   -2.249264    0.534765    0.366867   -0.029794   -0.030377
H     2.414603    0.908736   -0.219669   -0.040735    0.025264    0.000476
H    -2.145620    1.007829    0.205488    1.061133    1.411135   -0.321267
H    -2.627202   -1.846721    0.692568    0.469430    0.116745   -0.063745
13
* Frequency(27) 1372.7668
C     1.402343    0.538050   -0.064173   -0.024545   -0.012255    0.004249
C     1.144265   -0.762770    0.160038    0.068472   -0.048704    0.001156
N    -0.092651   -1.273578    0.356721   -0.067503    0.032926    0.001316
C    -1.075461   -0.401976    0.318500   -0.282484   -0.129022    0.046801
N    -0.913233    0.948015    0.095479   -0.197553   -0.269237    0.060750
C     0.275174    1.483417   -0.101230    0.028456   -0.019470    0.000140
O    -2.471830   -0.895346    0.530479    0.226647    0.130636   -0.041914
O     0.328456    2.627520   -0.282085    0.029823    0.129397   -0.022726
H     1.862916   -1.580178    0.217184    0.259263    0.128881   -0.045316
H    -0.382958   -2.248421    0.535624    0.366867   -0.029794   -0.030377
H     2.415755    0.908021   -0.219683   -0.040735    0.025264    0.000476
H    -2.175633    0.967916    0.214575    1.061133    1.411135   -0.321267
H    -2.640479   -1.850023    0.694371    0.469430    0.116745   -0.063745
13
* Frequency(27) 1372.7668
C     1.402109    0.537934   -0.064132   -0.024545   -0.012255    0.004249
C     1.144916   -0.763234    0.160049    0.068472   -0.048704    0.001156
N    -0.093294   -1.273265    0.356733   -0.067503    0.032926    0.001316
C    -1.078149   -0.403203    0.318945   -0.282484   -0.129022    0.046801
N    -0.915113    0.945453    0.096057   -0.197553   -0.269237    0.060750
C     0.275445    1.483232   -0.101229    0.028456   -0.019470    0.000140
O    -2.469673   -0.894103    0.530080    0.226647    0.130636   -0.041914
O     0.328740    2.628751   -0.282301    0.029823    0.129397   -0.022726
H     1.865383   -1.578952    0.216753    0.259263    0.128881   -0.045316
H    -0.379467   -2.248705    0.535335    0.366867   -0.029794   -0.030377
H     2.415368    0.908262   -0.219678   -0.040735    0.025264    0.000476
H    -2.165537    0.981342    0.211518    1.061133    1.411135   -0.321267
H    -2.636013   -1.848912    0.693764    0.469430    0.116745   -0.063745
13
* Frequency(27) 1372.7668
C     1.400973    0.537367   -0.063935   -0.024545   -0.012255    0.004249
C     1.148085   -0.765488    0.160102    0.068472   -0.048704    0.001156
N    -0.096418   -1.271741    0.356794   -0.067503    0.032926    0.001316
C    -1.091223   -0.409174    0.321111   -0.282484   -0.129022    0.046801
N    -0.924256    0.932992    0.098869   -0.197553   -0.269237    0.060750
C     0.276762    1.482330   -0.101223    0.028456   -0.019470    0.000140
O    -2.459184   -0.888057    0.528140    0.226647    0.130636   -0.041914
O     0.330120    2.634740   -0.283353    0.029823    0.129397   -0.022726
H     1.877382   -1.572987    0.214656    0.259263    0.128881   -0.045316
H    -0.362488   -2.250084    0.533929    0.366867   -0.029794   -0.030377
H     2.413482    0.909431   -0.219656   -0.040735    0.025264    0.000476
H    -2.116426    1.046652    0.196650    1.061133    1.411135   -0.321267
H    -2.614287   -1.843509    0.690814    0.469430    0.116745   -0.063745
13
* Frequency(27) 1372.7668
C     1.399058    0.536410   -0.063604   -0.024545   -0.012255    0.004249
C     1.153429   -0.769288    0.160193    0.068472   -0.048704    0.001156
N    -0.101685   -1.269172    0.356897   -0.067503    0.032926    0.001316
C    -1.113266   -0.419243    0.324763   -0.282484   -0.129022    0.046801
N    -0.939672    0.911983    0.103609   -0.197553   -0.269237    0.060750
C     0.278983    1.480811   -0.101212    0.028456   -0.019470    0.000140
O    -2.441498   -0.877863    0.524870    0.226647    0.130636   -0.041914
O     0.332447    2.644837   -0.285127    0.029823    0.129397   -0.022726
H     1.897613   -1.562930    0.211120    0.259263    0.128881   -0.045316
H    -0.333860   -2.252409    0.531558    0.366867   -0.029794   -0.030377
H     2.410304    0.911402   -0.219619   -0.040735    0.025264    0.000476
H    -2.033621    1.156768    0.171580    1.061133    1.411135   -0.321267
H    -2.577655   -1.834399    0.685840    0.469430    0.116745   -0.063745
13
* Frequency(27) 1372.7668
C     1.396571    0.535168   -0.063173   -0.024545   -0.012255    0.004249
C     1.160367   -0.774223    0.160310    0.068472   -0.048704    0.001156
N    -0.108525   -1.265836    0.357030   -0.067503    0.032926    0.001316
C    -1.141890   -0.432316    0.329505   -0.282484   -0.129022    0.046801
N    -0.959690    0.884701    0.109765   -0.197553   -0.269237    0.060750
C     0.281866    1.478838   -0.101197    0.028456   -0.019470    0.000140
O    -2.418532   -0.864625    0.520622    0.226647    0.130636   -0.041914
O     0.335469    2.657949   -0.287429    0.029823    0.129397   -0.022726
H     1.923884   -1.549871    0.206528    0.259263    0.128881   -0.045316
H    -0.296686   -2.255427    0.528480    0.366867   -0.029794   -0.030377
H     2.406176    0.913962   -0.219571   -0.040735    0.025264    0.000476
H    -1.926097    1.299758    0.139026    1.061133    1.411135   -0.321267
H    -2.530088   -1.822569    0.679380    0.469430    0.116745   -0.063745
13
* Frequency(27) 1372.7668
C     1.393781    0.533776   -0.062691   -0.024545   -0.012255    0.004249
C     1.168148   -0.779758    0.160441    0.068472   -0.048704    0.001156
N    -0.116197   -1.262094    0.357179   -0.067503    0.032926    0.001316
C    -1.173993   -0.446979    0.334824   -0.282484   -0.129022    0.046801
N    -0.982141    0.854104    0.116669   -0.197553   -0.269237    0.060750
C     0.285100    1.476626   -0.101181    0.028456   -0.019470    0.000140
O    -2.392774   -0.849779    0.515859    0.226647    0.130636   -0.041914
O     0.338858    2.672655   -0.290012    0.029823    0.129397   -0.022726
H     1.953348   -1.535224    0.201378    0.259263    0.128881   -0.045316
H    -0.254993   -2.258813    0.525028    0.366867   -0.029794   -0.030377
H     2.401547    0.916834   -0.219517   -0.040735    0.025264    0.000476
H    -1.805505    1.460126    0.102516    1.061133    1.411135   -0.321267
H    -2.476740   -1.809302    0.672136    0.469430    0.116745   -0.063745
