!B3LYP def2-SVP OPT FREQ CPCM(water)
%pal
nprocs 16
end
* xyz 1 1
   C        1.39943        0.51664       -0.05843
   C        1.16131       -0.78457        0.16422
   N       -0.10300       -1.27620        0.36247
   C       -1.16293       -0.43280        0.32977
   N       -1.00304        0.89353        0.10956
   C        0.23600        1.45365       -0.09250
   O       -2.43331       -0.86996        0.51881
   O        0.40342        2.65219       -0.29244
   H        1.95781       -1.52043        0.19988
   H       -0.23682       -2.26702        0.50621
   H        2.38347        0.93296       -0.21707
   H       -1.81105        1.49705        0.09205
   H       -2.45285       -1.82287        0.69010
*

