13
* (null), Energy   -1000.0000000
C     1.646520    0.274089   -0.194207   -0.093487    0.298648   -0.037154
C     1.420577   -1.039677    0.025063    0.012174   -0.066431    0.008725
N     0.135453   -1.525757    0.216409   -0.111648    0.020794    0.007528
C    -0.924794   -0.711788    0.195329    0.185566    0.005319   -0.018770
N    -0.732121    0.590004   -0.024536   -0.049439    0.119696   -0.014303
C     0.536344    1.216046   -0.237856    0.151001   -1.466745    0.211242
O    -2.146146   -1.110315    0.377217   -0.063891   -0.021067    0.009815
O     0.589994    2.411153   -0.425909    0.018143    0.885724   -0.137414
H     2.206629   -1.794809    0.067952    0.082929   -0.017130   -0.003962
H     0.004335   -2.526891    0.371768    0.209885   -0.054625   -0.013250
H     2.655430    0.658119   -0.342686    0.171727   -0.439219    0.051878
H    -1.554927    1.198215   -0.034522   -0.529182   -0.477193    0.122767
H    -2.238862   -2.064583    0.566301   -0.012313   -0.041052    0.007278
13
* Frequency(33) 1815.4544
C     1.635896    0.308029   -0.198430   -0.093487    0.298648   -0.037154
C     1.421960   -1.047227    0.026055    0.012174   -0.066431    0.008725
N     0.122765   -1.523394    0.217264   -0.111648    0.020794    0.007528
C    -0.903705   -0.711183    0.193196    0.185566    0.005319   -0.018770
N    -0.737740    0.603607   -0.026162   -0.049439    0.119696   -0.014303
C     0.553504    1.049358   -0.213849    0.151001   -1.466745    0.211242
O    -2.153407   -1.112709    0.378333   -0.063891   -0.021067    0.009815
O     0.592056    2.511811   -0.441526    0.018143    0.885724   -0.137414
H     2.216054   -1.796756    0.067502    0.082929   -0.017130   -0.003962
H     0.028188   -2.533099    0.370262    0.209885   -0.054625   -0.013250
H     2.674946    0.608204   -0.336790    0.171727   -0.439219    0.051878
H    -1.615066    1.143985   -0.020571   -0.529182   -0.477193    0.122767
H    -2.240262   -2.069248    0.567129   -0.012313   -0.041052    0.007278
13
* Frequency(33) 1815.4544
C     1.626423    0.338290   -0.202194   -0.093487    0.298648   -0.037154
C     1.423194   -1.053958    0.026939    0.012174   -0.066431    0.008725
N     0.111451   -1.521287    0.218027   -0.111648    0.020794    0.007528
C    -0.884902   -0.710644    0.191294    0.185566    0.005319   -0.018770
N    -0.742749    0.615736   -0.027611   -0.049439    0.119696   -0.014303
C     0.568805    0.900733   -0.192444    0.151001   -1.466745    0.211242
O    -2.159881   -1.114843    0.379327   -0.063891   -0.021067    0.009815
O     0.593894    2.601561   -0.455450    0.018143    0.885724   -0.137414
H     2.224457   -1.798491    0.067100    0.082929   -0.017130   -0.003962
H     0.049455   -2.538634    0.368920    0.209885   -0.054625   -0.013250
H     2.692347    0.563698   -0.331534    0.171727   -0.439219    0.051878
H    -1.668688    1.095631   -0.008131   -0.529182   -0.477193    0.122767
H    -2.241509   -2.073408    0.567866   -0.012313   -0.041052    0.007278
13
* Frequency(33) 1815.4544
C     1.619128    0.361595   -0.205094   -0.093487    0.298648   -0.037154
C     1.424144   -1.059142    0.027620    0.012174   -0.066431    0.008725
N     0.102739   -1.519664    0.218615   -0.111648    0.020794    0.007528
C    -0.870422   -0.710229    0.189829    0.185566    0.005319   -0.018770
N    -0.746607    0.625076   -0.028727   -0.049439    0.119696   -0.014303
C     0.580588    0.786277   -0.175960    0.151001   -1.466745    0.211242
O    -2.164867   -1.116487    0.380093   -0.063891   -0.021067    0.009815
O     0.595310    2.670677   -0.466173    0.018143    0.885724   -0.137414
H     2.230928   -1.799828    0.066791    0.082929   -0.017130   -0.003962
H     0.065833   -2.542896    0.367886    0.209885   -0.054625   -0.013250
H     2.705747    0.529424   -0.327485    0.171727   -0.439219    0.051878
H    -1.709982    1.058394    0.001449   -0.529182   -0.477193    0.122767
H    -2.242470   -2.076611    0.568434   -0.012313   -0.041052    0.007278
13
* Frequency(33) 1815.4544
C     1.614801    0.375417   -0.206813   -0.093487    0.298648   -0.037154
C     1.424707   -1.062217    0.028024    0.012174   -0.066431    0.008725
N     0.097572   -1.518702    0.218963   -0.111648    0.020794    0.007528
C    -0.861833   -0.709983    0.188960    0.185566    0.005319   -0.018770
N    -0.748895    0.630616   -0.029389   -0.049439    0.119696   -0.014303
C     0.587577    0.718394   -0.166184    0.151001   -1.466745    0.211242
O    -2.167824   -1.117462    0.380548   -0.063891   -0.021067    0.009815
O     0.596149    2.711670   -0.472532    0.018143    0.885724   -0.137414
H     2.234766   -1.800621    0.066607    0.082929   -0.017130   -0.003962
H     0.075547   -2.545424    0.367272    0.209885   -0.054625   -0.013250
H     2.713695    0.509096   -0.325084    0.171727   -0.439219    0.051878
H    -1.734473    1.036308    0.007131   -0.529182   -0.477193    0.122767
H    -2.243040   -2.078511    0.568771   -0.012313   -0.041052    0.007278
13
* Frequency(33) 1815.4544
C     1.613911    0.378258   -0.207167   -0.093487    0.298648   -0.037154
C     1.424823   -1.062849    0.028107    0.012174   -0.066431    0.008725
N     0.096510   -1.518504    0.219035   -0.111648    0.020794    0.007528
C    -0.860068   -0.709932    0.188782    0.185566    0.005319   -0.018770
N    -0.749366    0.631755   -0.029525   -0.049439    0.119696   -0.014303
C     0.589014    0.704438   -0.164174    0.151001   -1.466745    0.211242
O    -2.168432   -1.117663    0.380641   -0.063891   -0.021067    0.009815
O     0.596322    2.720097   -0.473840    0.018143    0.885724   -0.137414
H     2.235555   -1.800784    0.066570    0.082929   -0.017130   -0.003962
H     0.077544   -2.545944    0.367146    0.209885   -0.054625   -0.013250
H     2.715329    0.504917   -0.324591    0.171727   -0.439219    0.051878
H    -1.739508    1.031768    0.008299   -0.529182   -0.477193    0.122767
H    -2.243157   -2.078902    0.568840   -0.012313   -0.041052    0.007278
13
* Frequency(33) 1815.4544
C     1.616555    0.369812   -0.206116   -0.093487    0.298648   -0.037154
C     1.424479   -1.060970    0.027860    0.012174   -0.066431    0.008725
N     0.099667   -1.519092    0.218822   -0.111648    0.020794    0.007528
C    -0.865316   -0.710083    0.189312    0.185566    0.005319   -0.018770
N    -0.747967    0.628369   -0.029121   -0.049439    0.119696   -0.014303
C     0.584743    0.745924   -0.170149    0.151001   -1.466745    0.211242
O    -2.166625   -1.117067    0.380363   -0.063891   -0.021067    0.009815
O     0.595809    2.695046   -0.469953    0.018143    0.885724   -0.137414
H     2.233210   -1.800299    0.066682    0.082929   -0.017130   -0.003962
H     0.071608   -2.544399    0.367521    0.209885   -0.054625   -0.013250
H     2.710472    0.517340   -0.326058    0.171727   -0.439219    0.051878
H    -1.724541    1.045265    0.004827   -0.529182   -0.477193    0.122767
H    -2.242809   -2.077741    0.568634   -0.012313   -0.041052    0.007278
13
* Frequency(33) 1815.4544
C     1.622447    0.350992   -0.203774   -0.093487    0.298648   -0.037154
C     1.423711   -1.056783    0.027310    0.012174   -0.066431    0.008725
N     0.106703   -1.520402    0.218347   -0.111648    0.020794    0.007528
C    -0.877010   -0.710418    0.190495    0.185566    0.005319   -0.018770
N    -0.744852    0.620826   -0.028220   -0.049439    0.119696   -0.014303
C     0.575227    0.838354   -0.183460    0.151001   -1.466745    0.211242
O    -2.162598   -1.115739    0.379745   -0.063891   -0.021067    0.009815
O     0.594666    2.639230   -0.461294    0.018143    0.885724   -0.137414
H     2.227984   -1.799220    0.066932    0.082929   -0.017130   -0.003962
H     0.058381   -2.540957    0.368356    0.209885   -0.054625   -0.013250
H     2.699650    0.545018   -0.329327    0.171727   -0.439219    0.051878
H    -1.691193    1.075336   -0.002909   -0.529182   -0.477193    0.122767
H    -2.242033   -2.075154    0.568176   -0.012313   -0.041052    0.007278
13
* Frequency(33) 1815.4544
C     1.630947    0.323838   -0.200396   -0.093487    0.298648   -0.037154
C     1.422605   -1.050743    0.026517    0.012174   -0.066431    0.008725
N     0.116854   -1.522293    0.217663   -0.111648    0.020794    0.007528
C    -0.893882   -0.710901    0.192202    0.185566    0.005319   -0.018770
N    -0.740357    0.609943   -0.026919   -0.049439    0.119696   -0.014303
C     0.561498    0.971713   -0.202667    0.151001   -1.466745    0.211242
O    -2.156789   -1.113824    0.378852   -0.063891   -0.021067    0.009815
O     0.593016    2.558698   -0.448800    0.018143    0.885724   -0.137414
H     2.220444   -1.797663    0.067292    0.082929   -0.017130   -0.003962
H     0.039298   -2.535990    0.369561    0.209885   -0.054625   -0.013250
H     2.684036    0.584953   -0.334044    0.171727   -0.439219    0.051878
H    -1.643079    1.118723   -0.014072   -0.529182   -0.477193    0.122767
H    -2.240914   -2.071421    0.567514   -0.012313   -0.041052    0.007278
13
* Frequency(33) 1815.4544
C     1.641134    0.291293   -0.196348   -0.093487    0.298648   -0.037154
C     1.421278   -1.043504    0.025566    0.012174   -0.066431    0.008725
N     0.129021   -1.524559    0.216843   -0.111648    0.020794    0.007528
C    -0.914104   -0.711481    0.194247    0.185566    0.005319   -0.018770
N    -0.734969    0.596900   -0.025360   -0.049439    0.119696   -0.014303
C     0.545043    1.131549   -0.225687    0.151001   -1.466745    0.211242
O    -2.149827   -1.111528    0.377783   -0.063891   -0.021067    0.009815
O     0.591039    2.462178   -0.433825    0.018143    0.885724   -0.137414
H     2.211407   -1.795796    0.067724    0.082929   -0.017130   -0.003962
H     0.016426   -2.530038    0.371005    0.209885   -0.054625   -0.013250
H     2.665323    0.632816   -0.339697    0.171727   -0.439219    0.051878
H    -1.585412    1.170725   -0.027450   -0.529182   -0.477193    0.122767
H    -2.239572   -2.066948    0.566721   -0.012313   -0.041052    0.007278
13
* Frequency(33) 1815.4544
C     1.651906    0.256884   -0.192067   -0.093487    0.298648   -0.037154
C     1.419875   -1.035850    0.024561    0.012174   -0.066431    0.008725
N     0.141885   -1.526955    0.215975   -0.111648    0.020794    0.007528
C    -0.935484   -0.712094    0.196410    0.185566    0.005319   -0.018770
N    -0.729273    0.583109   -0.023712   -0.049439    0.119696   -0.014303
C     0.527645    1.300542   -0.250025    0.151001   -1.466745    0.211242
O    -2.142465   -1.109101    0.376652   -0.063891   -0.021067    0.009815
O     0.588949    2.360128   -0.417993    0.018143    0.885724   -0.137414
H     2.201852   -1.793822    0.068180    0.082929   -0.017130   -0.003962
H    -0.007756   -2.523744    0.372531    0.209885   -0.054625   -0.013250
H     2.645537    0.683421   -0.345675    0.171727   -0.439219    0.051878
H    -1.524442    1.225705   -0.041595   -0.529182   -0.477193    0.122767
H    -2.238153   -2.062218    0.565882   -0.012313   -0.041052    0.007278
13
* Frequency(33) 1815.4544
C     1.662093    0.224340   -0.188018   -0.093487    0.298648   -0.037154
C     1.418549   -1.028611    0.023610    0.012174   -0.066431    0.008725
N     0.154051   -1.529221    0.215155   -0.111648    0.020794    0.007528
C    -0.955706   -0.712674    0.198456    0.185566    0.005319   -0.018770
N    -0.723885    0.570065   -0.022154   -0.049439    0.119696   -0.014303
C     0.511190    1.460378   -0.273045    0.151001   -1.466745    0.211242
O    -2.135503   -1.106805    0.375582   -0.063891   -0.021067    0.009815
O     0.586972    2.263608   -0.403019    0.018143    0.885724   -0.137414
H     2.192815   -1.791956    0.068612    0.082929   -0.017130   -0.003962
H    -0.030628   -2.517791    0.373975    0.209885   -0.054625   -0.013250
H     2.626823    0.731284   -0.351328    0.171727   -0.439219    0.051878
H    -1.466775    1.277706   -0.054973   -0.529182   -0.477193    0.122767
H    -2.236811   -2.057744    0.565089   -0.012313   -0.041052    0.007278
13
* Frequency(33) 1815.4544
C     1.670593    0.197186   -0.184640   -0.093487    0.298648   -0.037154
C     1.417442   -1.022571    0.022817    0.012174   -0.066431    0.008725
N     0.164203   -1.531111    0.214470   -0.111648    0.020794    0.007528
C    -0.972578   -0.713157    0.200162    0.185566    0.005319   -0.018770
N    -0.719390    0.559182   -0.020853   -0.049439    0.119696   -0.014303
C     0.497461    1.593737   -0.292252    0.151001   -1.466745    0.211242
O    -2.129694   -1.104890    0.374690   -0.063891   -0.021067    0.009815
O     0.585322    2.183076   -0.390525    0.018143    0.885724   -0.137414
H     2.185275   -1.790398    0.068972    0.082929   -0.017130   -0.003962
H    -0.049711   -2.512825    0.375180    0.209885   -0.054625   -0.013250
H     2.611210    0.771219   -0.356045    0.171727   -0.439219    0.051878
H    -1.418661    1.321094   -0.066135   -0.529182   -0.477193    0.122767
H    -2.235692   -2.054012    0.564427   -0.012313   -0.041052    0.007278
13
* Frequency(33) 1815.4544
C     1.676485    0.178366   -0.182299   -0.093487    0.298648   -0.037154
C     1.416675   -1.018385    0.022267    0.012174   -0.066431    0.008725
N     0.171238   -1.532422    0.213996   -0.111648    0.020794    0.007528
C    -0.984272   -0.713492    0.201345    0.185566    0.005319   -0.018770
N    -0.716275    0.551639   -0.019952   -0.049439    0.119696   -0.014303
C     0.487945    1.686168   -0.305564    0.151001   -1.466745    0.211242
O    -2.125668   -1.103562    0.374072   -0.063891   -0.021067    0.009815
O     0.584179    2.127260   -0.381865    0.018143    0.885724   -0.137414
H     2.180049   -1.789319    0.069222    0.082929   -0.017130   -0.003962
H    -0.062937   -2.509382    0.376015    0.209885   -0.054625   -0.013250
H     2.600388    0.798897   -0.359314    0.171727   -0.439219    0.051878
H    -1.385313    1.351165   -0.073872   -0.529182   -0.477193    0.122767
H    -2.234916   -2.051425    0.563969   -0.012313   -0.041052    0.007278
13
* Frequency(33) 1815.4544
C     1.679129    0.169919   -0.181248   -0.093487    0.298648   -0.037154
C     1.416330   -1.016506    0.022020    0.012174   -0.066431    0.008725
N     0.174396   -1.533010    0.213783   -0.111648    0.020794    0.007528
C    -0.989520   -0.713643    0.201876    0.185566    0.005319   -0.018770
N    -0.714876    0.548254   -0.019547   -0.049439    0.119696   -0.014303
C     0.483674    1.727653   -0.311538    0.151001   -1.466745    0.211242
O    -2.123861   -1.102966    0.373794   -0.063891   -0.021067    0.009815
O     0.583666    2.102208   -0.377979    0.018143    0.885724   -0.137414
H     2.177703   -1.788834    0.069334    0.082929   -0.017130   -0.003962
H    -0.068874   -2.507837    0.376390    0.209885   -0.054625   -0.013250
H     2.595531    0.811320   -0.360781    0.171727   -0.439219    0.051878
H    -1.370346    1.364662   -0.077344   -0.529182   -0.477193    0.122767
H    -2.234568   -2.050264    0.563763   -0.012313   -0.041052    0.007278
13
* Frequency(33) 1815.4544
C     1.678239    0.172761   -0.181601   -0.093487    0.298648   -0.037154
C     1.416446   -1.017138    0.022103    0.012174   -0.066431    0.008725
N     0.173334   -1.532812    0.213855   -0.111648    0.020794    0.007528
C    -0.987755   -0.713592    0.201697    0.185566    0.005319   -0.018770
N    -0.715347    0.549393   -0.019683   -0.049439    0.119696   -0.014303
C     0.485111    1.713698   -0.309528    0.151001   -1.466745    0.211242
O    -2.124468   -1.103167    0.373887   -0.063891   -0.021067    0.009815
O     0.583838    2.110636   -0.379286    0.018143    0.885724   -0.137414
H     2.178492   -1.788997    0.069296    0.082929   -0.017130   -0.003962
H    -0.066877   -2.508357    0.376264    0.209885   -0.054625   -0.013250
H     2.597165    0.807141   -0.360288    0.171727   -0.439219    0.051878
H    -1.375381    1.360122   -0.076176   -0.529182   -0.477193    0.122767
H    -2.234685   -2.050654    0.563832   -0.012313   -0.041052    0.007278
13
* Frequency(33) 1815.4544
C     1.673913    0.186583   -0.183321   -0.093487    0.298648   -0.037154
C     1.417010   -1.020212    0.022507    0.012174   -0.066431    0.008725
N     0.168167   -1.531849    0.214203   -0.111648    0.020794    0.007528
C    -0.979167   -0.713346    0.200829    0.185566    0.005319   -0.018770
N    -0.717635    0.554932   -0.020345   -0.049439    0.119696   -0.014303
C     0.492100    1.645814   -0.299752    0.151001   -1.466745    0.211242
O    -2.127425   -1.104142    0.374342   -0.063891   -0.021067    0.009815
O     0.584678    2.151628   -0.385646    0.018143    0.885724   -0.137414
H     2.182330   -1.789790    0.069113    0.082929   -0.017130   -0.003962
H    -0.057163   -2.510885    0.375650    0.209885   -0.054625   -0.013250
H     2.605112    0.786813   -0.357887    0.171727   -0.439219    0.051878
H    -1.399872    1.338036   -0.070494   -0.529182   -0.477193    0.122767
H    -2.235255   -2.052554    0.564169   -0.012313   -0.041052    0.007278
13
* Frequency(33) 1815.4544
C     1.666617    0.209887   -0.186220   -0.093487    0.298648   -0.037154
C     1.417960   -1.025396    0.023188    0.012174   -0.066431    0.008725
N     0.159454   -1.530227    0.214791   -0.111648    0.020794    0.007528
C    -0.964686   -0.712931    0.199364    0.185566    0.005319   -0.018770
N    -0.721493    0.564273   -0.021462   -0.049439    0.119696   -0.014303
C     0.503883    1.531358   -0.283268    0.151001   -1.466745    0.211242
O    -2.132411   -1.105786    0.375107   -0.063891   -0.021067    0.009815
O     0.586094    2.220745   -0.396369    0.018143    0.885724   -0.137414
H     2.188802   -1.791127    0.068804    0.082929   -0.017130   -0.003962
H    -0.040785   -2.515148    0.374616    0.209885   -0.054625   -0.013250
H     2.618513    0.752540   -0.353838    0.171727   -0.439219    0.051878
H    -1.441166    1.300799   -0.060914   -0.529182   -0.477193    0.122767
H    -2.236215   -2.055758    0.564737   -0.012313   -0.041052    0.007278
13
* Frequency(33) 1815.4544
C     1.657144    0.240149   -0.189985   -0.093487    0.298648   -0.037154
C     1.419193   -1.032128    0.024072    0.012174   -0.066431    0.008725
N     0.148141   -1.528120    0.215553   -0.111648    0.020794    0.007528
C    -0.945883   -0.712392    0.197462    0.185566    0.005319   -0.018770
N    -0.726503    0.576401   -0.022911   -0.049439    0.119696   -0.014303
C     0.519184    1.382734   -0.261863    0.151001   -1.466745    0.211242
O    -2.138885   -1.107920    0.376102   -0.063891   -0.021067    0.009815
O     0.587932    2.310495   -0.410293    0.018143    0.885724   -0.137414
H     2.197205   -1.792862    0.068402    0.082929   -0.017130   -0.003962
H    -0.019517   -2.520683    0.373274    0.209885   -0.054625   -0.013250
H     2.635914    0.708034   -0.348582    0.171727   -0.439219    0.051878
H    -1.494788    1.252445   -0.048474   -0.529182   -0.477193    0.122767
H    -2.237463   -2.059917    0.565474   -0.012313   -0.041052    0.007278
13
* Frequency(33) 1815.4544
C     1.646520    0.274089   -0.194207   -0.093487    0.298648   -0.037154
C     1.420577   -1.039677    0.025063    0.012174   -0.066431    0.008725
N     0.135453   -1.525757    0.216409   -0.111648    0.020794    0.007528
C    -0.924794   -0.711788    0.195329    0.185566    0.005319   -0.018770
N    -0.732121    0.590004   -0.024536   -0.049439    0.119696   -0.014303
C     0.536344    1.216046   -0.237856    0.151001   -1.466745    0.211242
O    -2.146146   -1.110315    0.377217   -0.063891   -0.021067    0.009815
O     0.589994    2.411153   -0.425909    0.018143    0.885724   -0.137414
H     2.206629   -1.794809    0.067952    0.082929   -0.017130   -0.003962
H     0.004335   -2.526891    0.371768    0.209885   -0.054625   -0.013250
H     2.655430    0.658119   -0.342686    0.171727   -0.439219    0.051878
H    -1.554927    1.198215   -0.034522   -0.529182   -0.477193    0.122767
H    -2.238862   -2.064583    0.566301   -0.012313   -0.041052    0.007278
