13
* (null), Energy   -1000.0000000
C     1.646520    0.274089   -0.194207   -0.222784    0.332662   -0.030672
C     1.420577   -1.039677    0.025063    0.218755    0.043554   -0.025949
N     0.135453   -1.525757    0.216409    0.022580   -0.091627    0.010906
C    -0.924794   -0.711788    0.195329    0.051606    0.040050   -0.011296
N    -0.732121    0.590004   -0.024536   -0.071958   -0.038763    0.012975
C     0.536344    1.216046   -0.237856    0.166261    0.026232   -0.018997
O    -2.146146   -1.110315    0.377217   -0.024539   -0.004315    0.003035
O     0.589994    2.411153   -0.425909   -0.009399   -0.096643    0.015694
H     2.206629   -1.794809    0.067952   -0.895344   -1.141357    0.252363
H     0.004335   -2.526891    0.371768   -0.804547    0.023499    0.079863
H     2.655430    0.658119   -0.342686    0.255800   -0.891298    0.112948
H    -1.554927    1.198215   -0.034522    0.074604    0.159024   -0.033672
H    -2.238862   -2.064583    0.566301    0.046261   -0.008240   -0.004995
13
* Frequency(28) 1409.1432
C     1.621202    0.311894   -0.197693   -0.222784    0.332662   -0.030672
C     1.445437   -1.034727    0.022115    0.218755    0.043554   -0.025949
N     0.138019   -1.536170    0.217648    0.022580   -0.091627    0.010906
C    -0.918929   -0.707236    0.194045    0.051606    0.040050   -0.011296
N    -0.740299    0.585599   -0.023062   -0.071958   -0.038763    0.012975
C     0.555239    1.219027   -0.240015    0.166261    0.026232   -0.018997
O    -2.148935   -1.110805    0.377562   -0.024539   -0.004315    0.003035
O     0.588926    2.400170   -0.424126   -0.009399   -0.096643    0.015694
H     2.104878   -1.924518    0.096632   -0.895344   -1.141357    0.252363
H    -0.087097   -2.524220    0.380844   -0.804547    0.023499    0.079863
H     2.684500    0.556827   -0.329850    0.255800   -0.891298    0.112948
H    -1.546449    1.216287   -0.038349    0.074604    0.159024   -0.033672
H    -2.233605   -2.065519    0.565734    0.046261   -0.008240   -0.004995
13
* Frequency(28) 1409.1432
C     1.598627    0.345603   -0.200801   -0.222784    0.332662   -0.030672
C     1.467603   -1.030314    0.019485    0.218755    0.043554   -0.025949
N     0.140307   -1.545454    0.218753    0.022580   -0.091627    0.010906
C    -0.913700   -0.703178    0.192900    0.051606    0.040050   -0.011296
N    -0.747590    0.581671   -0.021747   -0.071958   -0.038763    0.012975
C     0.572086    1.221685   -0.241940    0.166261    0.026232   -0.018997
O    -2.151421   -1.111242    0.377870   -0.024539   -0.004315    0.003035
O     0.587973    2.390377   -0.422535   -0.009399   -0.096643    0.015694
H     2.014153   -2.040172    0.122204   -0.895344   -1.141357    0.252363
H    -0.168622   -2.521839    0.388937   -0.804547    0.023499    0.079863
H     2.710420    0.466512   -0.318405    0.255800   -0.891298    0.112948
H    -1.538889    1.232401   -0.041761    0.074604    0.159024   -0.033672
H    -2.228918   -2.066354    0.565228    0.046261   -0.008240   -0.004995
13
* Frequency(28) 1409.1432
C     1.581242    0.371562   -0.203194   -0.222784    0.332662   -0.030672
C     1.484674   -1.026916    0.017460    0.218755    0.043554   -0.025949
N     0.142069   -1.552604    0.219604    0.022580   -0.091627    0.010906
C    -0.909673   -0.700053    0.192019    0.051606    0.040050   -0.011296
N    -0.753205    0.578646   -0.020735   -0.071958   -0.038763    0.012975
C     0.585060    1.223732   -0.243422    0.166261    0.026232   -0.018997
O    -2.153336   -1.111579    0.378107   -0.024539   -0.004315    0.003035
O     0.587240    2.382836   -0.421311   -0.009399   -0.096643    0.015694
H     1.944286   -2.129236    0.141896   -0.895344   -1.141357    0.252363
H    -0.231404   -2.520005    0.395169   -0.804547    0.023499    0.079863
H     2.730382    0.396961   -0.309591    0.255800   -0.891298    0.112948
H    -1.533067    1.244810   -0.044388    0.074604    0.159024   -0.033672
H    -2.225308   -2.066997    0.564838    0.046261   -0.008240   -0.004995
13
* Frequency(28) 1409.1432
C     1.570932    0.386958   -0.204614   -0.222784    0.332662   -0.030672
C     1.494798   -1.024900    0.016259    0.218755    0.043554   -0.025949
N     0.143114   -1.556845    0.220109    0.022580   -0.091627    0.010906
C    -0.907285   -0.698199    0.191496    0.051606    0.040050   -0.011296
N    -0.756536    0.576852   -0.020134   -0.071958   -0.038763    0.012975
C     0.592755    1.224946   -0.244301    0.166261    0.026232   -0.018997
O    -2.154472   -1.111779    0.378247   -0.024539   -0.004315    0.003035
O     0.586805    2.378363   -0.420584   -0.009399   -0.096643    0.015694
H     1.902848   -2.182060    0.153576   -0.895344   -1.141357    0.252363
H    -0.268640   -2.518918    0.398865   -0.804547    0.023499    0.079863
H     2.742220    0.355710   -0.304364    0.255800   -0.891298    0.112948
H    -1.529615    1.252170   -0.045947    0.074604    0.159024   -0.033672
H    -2.223167   -2.067378    0.564607    0.046261   -0.008240   -0.004995
13
* Frequency(28) 1409.1432
C     1.568812    0.390123   -0.204906   -0.222784    0.332662   -0.030672
C     1.496879   -1.024485    0.016012    0.218755    0.043554   -0.025949
N     0.143329   -1.557716    0.220213    0.022580   -0.091627    0.010906
C    -0.906794   -0.697818    0.191389    0.051606    0.040050   -0.011296
N    -0.757220    0.576483   -0.020011   -0.071958   -0.038763    0.012975
C     0.594337    1.225196   -0.244482    0.166261    0.026232   -0.018997
O    -2.154705   -1.111820    0.378276   -0.024539   -0.004315    0.003035
O     0.586715    2.377443   -0.420435   -0.009399   -0.096643    0.015694
H     1.894329   -2.192919    0.155977   -0.895344   -1.141357    0.252363
H    -0.276294   -2.518694    0.399625   -0.804547    0.023499    0.079863
H     2.744654    0.347230   -0.303289    0.255800   -0.891298    0.112948
H    -1.528905    1.253683   -0.046267    0.074604    0.159024   -0.033672
H    -2.222726   -2.067457    0.564559    0.046261   -0.008240   -0.004995
13
* Frequency(28) 1409.1432
C     1.575113    0.380714   -0.204038   -0.222784    0.332662   -0.030672
C     1.490692   -1.025717    0.016746    0.218755    0.043554   -0.025949
N     0.142690   -1.555125    0.219904    0.022580   -0.091627    0.010906
C    -0.908253   -0.698951    0.191708    0.051606    0.040050   -0.011296
N    -0.755185    0.577580   -0.020378   -0.071958   -0.038763    0.012975
C     0.589634    1.224454   -0.243945    0.166261    0.026232   -0.018997
O    -2.154011   -1.111698    0.378190   -0.024539   -0.004315    0.003035
O     0.586981    2.380177   -0.420879   -0.009399   -0.096643    0.015694
H     1.919653   -2.160637    0.148840   -0.895344   -1.141357    0.252363
H    -0.253539   -2.519359    0.397366   -0.804547    0.023499    0.079863
H     2.737419    0.372439   -0.306484    0.255800   -0.891298    0.112948
H    -1.531015    1.249185   -0.045315    0.074604    0.159024   -0.033672
H    -2.224035   -2.067224    0.564700    0.046261   -0.008240   -0.004995
13
* Frequency(28) 1409.1432
C     1.589152    0.359750   -0.202105   -0.222784    0.332662   -0.030672
C     1.476907   -1.028462    0.018382    0.218755    0.043554   -0.025949
N     0.141268   -1.549351    0.219217    0.022580   -0.091627    0.010906
C    -0.911505   -0.701475    0.192420    0.051606    0.040050   -0.011296
N    -0.750650    0.580023   -0.021195   -0.071958   -0.038763    0.012975
C     0.579157    1.222801   -0.242748    0.166261    0.026232   -0.018997
O    -2.152465   -1.111426    0.377999   -0.024539   -0.004315    0.003035
O     0.587573    2.386267   -0.421868   -0.009399   -0.096643    0.015694
H     1.976075   -2.088712    0.132936   -0.895344   -1.141357    0.252363
H    -0.202838   -2.520840    0.392333   -0.804547    0.023499    0.079863
H     2.721299    0.428606   -0.313602    0.255800   -0.891298    0.112948
H    -1.535716    1.239164   -0.043193    0.074604    0.159024   -0.033672
H    -2.226950   -2.066705    0.565015    0.046261   -0.008240   -0.004995
13
* Frequency(28) 1409.1432
C     1.609408    0.329504   -0.199317   -0.222784    0.332662   -0.030672
C     1.457017   -1.032422    0.020741    0.218755    0.043554   -0.025949
N     0.139214   -1.541020    0.218226    0.022580   -0.091627    0.010906
C    -0.916197   -0.705116    0.193447    0.051606    0.040050   -0.011296
N    -0.744108    0.583547   -0.022375   -0.071958   -0.038763    0.012975
C     0.564040    1.220415   -0.241021    0.166261    0.026232   -0.018997
O    -2.150234   -1.111033    0.377723   -0.024539   -0.004315    0.003035
O     0.588428    2.395054   -0.423295   -0.009399   -0.096643    0.015694
H     2.057481   -1.984938    0.109991   -0.895344   -1.141357    0.252363
H    -0.129687   -2.522976    0.385072   -0.804547    0.023499    0.079863
H     2.698042    0.509645   -0.323871    0.255800   -0.891298    0.112948
H    -1.542499    1.224705   -0.040131    0.074604    0.159024   -0.033672
H    -2.231156   -2.065955    0.565469    0.046261   -0.008240   -0.004995
13
* Frequency(28) 1409.1432
C     1.633686    0.293253   -0.195974   -0.222784    0.332662   -0.030672
C     1.433179   -1.037168    0.023569    0.218755    0.043554   -0.025949
N     0.136754   -1.531035    0.217037    0.022580   -0.091627    0.010906
C    -0.921821   -0.709480    0.194678    0.051606    0.040050   -0.011296
N    -0.736266    0.587771   -0.023789   -0.071958   -0.038763    0.012975
C     0.545922    1.217557   -0.238950    0.166261    0.026232   -0.018997
O    -2.147560   -1.110563    0.377392   -0.024539   -0.004315    0.003035
O     0.589452    2.405585   -0.425005   -0.009399   -0.096643    0.015694
H     2.155050   -1.860560    0.082490   -0.895344   -1.141357    0.252363
H    -0.042013   -2.525537    0.376369   -0.804547    0.023499    0.079863
H     2.670166    0.606773   -0.336179    0.255800   -0.891298    0.112948
H    -1.550629    1.207376   -0.036462    0.074604    0.159024   -0.033672
H    -2.236197   -2.065057    0.566014    0.046261   -0.008240   -0.004995
13
* Frequency(28) 1409.1432
C     1.659354    0.254925   -0.192440   -0.222784    0.332662   -0.030672
C     1.407975   -1.042186    0.026558    0.218755    0.043554   -0.025949
N     0.134152   -1.520478    0.215781    0.022580   -0.091627    0.010906
C    -0.927767   -0.714095    0.195979    0.051606    0.040050   -0.011296
N    -0.727976    0.592237   -0.025284   -0.071958   -0.038763    0.012975
C     0.526766    1.214534   -0.236762    0.166261    0.026232   -0.018997
O    -2.144733   -1.110066    0.377043   -0.024539   -0.004315    0.003035
O     0.590535    2.416720   -0.426813   -0.009399   -0.096643    0.015694
H     2.258208   -1.729058    0.053414   -0.895344   -1.141357    0.252363
H     0.050684   -2.528244    0.367167   -0.804547    0.023499    0.079863
H     2.640694    0.709465   -0.349193    0.255800   -0.891298    0.112948
H    -1.559225    1.189054   -0.032583    0.074604    0.159024   -0.033672
H    -2.241527   -2.064108    0.566589    0.046261   -0.008240   -0.004995
13
* Frequency(28) 1409.1432
C     1.683632    0.218673   -0.189098   -0.222784    0.332662   -0.030672
C     1.384136   -1.046932    0.029386    0.218755    0.043554   -0.025949
N     0.131691   -1.510493    0.214592    0.022580   -0.091627    0.010906
C    -0.933391   -0.718459    0.197210    0.051606    0.040050   -0.011296
N    -0.720134    0.596461   -0.026698   -0.071958   -0.038763    0.012975
C     0.508648    1.211676   -0.234691    0.166261    0.026232   -0.018997
O    -2.142058   -1.109596    0.376712   -0.024539   -0.004315    0.003035
O     0.591560    2.427252   -0.428524   -0.009399   -0.096643    0.015694
H     2.355777   -1.604680    0.025913   -0.895344   -1.141357    0.252363
H     0.138358   -2.530805    0.358464   -0.804547    0.023499    0.079863
H     2.612818    0.806592   -0.361501    0.255800   -0.891298    0.112948
H    -1.567355    1.171725   -0.028913    0.074604    0.159024   -0.033672
H    -2.246569   -2.063210    0.567134    0.046261   -0.008240   -0.004995
13
* Frequency(28) 1409.1432
C     1.703888    0.188427   -0.186309   -0.222784    0.332662   -0.030672
C     1.364247   -1.050892    0.031745    0.218755    0.043554   -0.025949
N     0.129638   -1.502163    0.213601    0.022580   -0.091627    0.010906
C    -0.938083   -0.722100    0.198237    0.051606    0.040050   -0.011296
N    -0.713592    0.599986   -0.027878   -0.071958   -0.038763    0.012975
C     0.493531    1.209291   -0.232964    0.166261    0.026232   -0.018997
O    -2.139827   -1.109203    0.376436   -0.024539   -0.004315    0.003035
O     0.592414    2.436039   -0.429951   -0.009399   -0.096643    0.015694
H     2.437183   -1.500906    0.002967   -0.895344   -1.141357    0.252363
H     0.211509   -2.532942    0.351203   -0.804547    0.023499    0.079863
H     2.589560    0.887631   -0.371770    0.255800   -0.891298    0.112948
H    -1.574138    1.157266   -0.025852    0.074604    0.159024   -0.033672
H    -2.250775   -2.062461    0.567588    0.046261   -0.008240   -0.004995
13
* Frequency(28) 1409.1432
C     1.717927    0.167464   -0.184376   -0.222784    0.332662   -0.030672
C     1.350461   -1.053637    0.033381    0.218755    0.043554   -0.025949
N     0.128215   -1.496388    0.212913    0.022580   -0.091627    0.010906
C    -0.941335   -0.724624    0.198949    0.051606    0.040050   -0.011296
N    -0.709057    0.602429   -0.028695   -0.071958   -0.038763    0.012975
C     0.483054    1.207638   -0.231767    0.166261    0.026232   -0.018997
O    -2.138281   -1.108931    0.376245   -0.024539   -0.004315    0.003035
O     0.593007    2.442129   -0.430940   -0.009399   -0.096643    0.015694
H     2.493606   -1.428981   -0.012936   -0.895344   -1.141357    0.252363
H     0.262209   -2.534423    0.346170   -0.804547    0.023499    0.079863
H     2.573441    0.943798   -0.378888    0.255800   -0.891298    0.112948
H    -1.578839    1.147245   -0.023730    0.074604    0.159024   -0.033672
H    -2.253690   -2.061941    0.567902    0.046261   -0.008240   -0.004995
13
* Frequency(28) 1409.1432
C     1.724228    0.158055   -0.183509   -0.222784    0.332662   -0.030672
C     1.344274   -1.054869    0.034115    0.218755    0.043554   -0.025949
N     0.127577   -1.493797    0.212605    0.022580   -0.091627    0.010906
C    -0.942794   -0.725757    0.199269    0.051606    0.040050   -0.011296
N    -0.707022    0.603525   -0.029062   -0.071958   -0.038763    0.012975
C     0.478351    1.206896   -0.231230    0.166261    0.026232   -0.018997
O    -2.137587   -1.108809    0.376159   -0.024539   -0.004315    0.003035
O     0.593272    2.444862   -0.431384   -0.009399   -0.096643    0.015694
H     2.518929   -1.396699   -0.020074   -0.895344   -1.141357    0.252363
H     0.284965   -2.535087    0.343911   -0.804547    0.023499    0.079863
H     2.566206    0.969007   -0.382083    0.255800   -0.891298    0.112948
H    -1.580949    1.142747   -0.022778    0.074604    0.159024   -0.033672
H    -2.254999   -2.061708    0.568044    0.046261   -0.008240   -0.004995
13
* Frequency(28) 1409.1432
C     1.722109    0.161220   -0.183800   -0.222784    0.332662   -0.030672
C     1.346355   -1.054455    0.033868    0.218755    0.043554   -0.025949
N     0.127792   -1.494669    0.212709    0.022580   -0.091627    0.010906
C    -0.942303   -0.725376    0.199161    0.051606    0.040050   -0.011296
N    -0.707707    0.603156   -0.028939   -0.071958   -0.038763    0.012975
C     0.479933    1.207145   -0.231411    0.166261    0.026232   -0.018997
O    -2.137820   -1.108850    0.376188   -0.024539   -0.004315    0.003035
O     0.593183    2.443943   -0.431234   -0.009399   -0.096643    0.015694
H     2.510411   -1.407558   -0.017673   -0.895344   -1.141357    0.252363
H     0.277310   -2.534864    0.344671   -0.804547    0.023499    0.079863
H     2.568639    0.960527   -0.381008    0.255800   -0.891298    0.112948
H    -1.580239    1.144260   -0.023098    0.074604    0.159024   -0.033672
H    -2.254558   -2.061787    0.567996    0.046261   -0.008240   -0.004995
13
* Frequency(28) 1409.1432
C     1.711798    0.176616   -0.185220   -0.222784    0.332662   -0.030672
C     1.356480   -1.052439    0.032667    0.218755    0.043554   -0.025949
N     0.128837   -1.498909    0.213213    0.022580   -0.091627    0.010906
C    -0.939915   -0.723522    0.198639    0.051606    0.040050   -0.011296
N    -0.711037    0.601362   -0.028338   -0.071958   -0.038763    0.012975
C     0.487628    1.208359   -0.232290    0.166261    0.026232   -0.018997
O    -2.138956   -1.109050    0.376328   -0.024539   -0.004315    0.003035
O     0.592748    2.439470   -0.430508   -0.009399   -0.096643    0.015694
H     2.468973   -1.460382   -0.005993   -0.895344   -1.141357    0.252363
H     0.240074   -2.533776    0.348367   -0.804547    0.023499    0.079863
H     2.580478    0.919276   -0.375781    0.255800   -0.891298    0.112948
H    -1.576787    1.151620   -0.024656    0.074604    0.159024   -0.033672
H    -2.252417   -2.062168    0.567765    0.046261   -0.008240   -0.004995
13
* Frequency(28) 1409.1432
C     1.694413    0.202575   -0.187613   -0.222784    0.332662   -0.030672
C     1.373550   -1.049040    0.030642    0.218755    0.043554   -0.025949
N     0.130599   -1.506059    0.214064    0.022580   -0.091627    0.010906
C    -0.935888   -0.720397    0.197757    0.051606    0.040050   -0.011296
N    -0.716652    0.598337   -0.027326   -0.071958   -0.038763    0.012975
C     0.500602    1.210406   -0.233772    0.166261    0.026232   -0.018997
O    -2.140871   -1.109387    0.376565   -0.024539   -0.004315    0.003035
O     0.592014    2.431929   -0.429283   -0.009399   -0.096643    0.015694
H     2.399105   -1.549446    0.013700   -0.895344   -1.141357    0.252363
H     0.177292   -2.531942    0.354599   -0.804547    0.023499    0.079863
H     2.600439    0.849725   -0.366967    0.255800   -0.891298    0.112948
H    -1.570965    1.164029   -0.027284    0.074604    0.159024   -0.033672
H    -2.248807   -2.062811    0.567375    0.046261   -0.008240   -0.004995
13
* Frequency(28) 1409.1432
C     1.671838    0.236283   -0.190721   -0.222784    0.332662   -0.030672
C     1.395716   -1.044627    0.028012    0.218755    0.043554   -0.025949
N     0.132887   -1.515344    0.215169    0.022580   -0.091627    0.010906
C    -0.930659   -0.716339    0.196612    0.051606    0.040050   -0.011296
N    -0.723944    0.594409   -0.026011   -0.071958   -0.038763    0.012975
C     0.517449    1.213064   -0.235697    0.166261    0.026232   -0.018997
O    -2.143357   -1.109824    0.376872   -0.024539   -0.004315    0.003035
O     0.591062    2.422136   -0.427693   -0.009399   -0.096643    0.015694
H     2.308380   -1.665100    0.039272   -0.895344   -1.141357    0.252363
H     0.095768   -2.529561    0.362692   -0.804547    0.023499    0.079863
H     2.626360    0.759410   -0.355522    0.255800   -0.891298    0.112948
H    -1.563405    1.180143   -0.030696    0.074604    0.159024   -0.033672
H    -2.244120   -2.063646    0.566869    0.046261   -0.008240   -0.004995
13
* Frequency(28) 1409.1432
C     1.646520    0.274089   -0.194207   -0.222784    0.332662   -0.030672
C     1.420577   -1.039677    0.025063    0.218755    0.043554   -0.025949
N     0.135453   -1.525757    0.216409    0.022580   -0.091627    0.010906
C    -0.924794   -0.711788    0.195329    0.051606    0.040050   -0.011296
N    -0.732121    0.590004   -0.024536   -0.071958   -0.038763    0.012975
C     0.536344    1.216046   -0.237856    0.166261    0.026232   -0.018997
O    -2.146146   -1.110315    0.377217   -0.024539   -0.004315    0.003035
O     0.589994    2.411153   -0.425909   -0.009399   -0.096643    0.015694
H     2.206629   -1.794809    0.067952   -0.895344   -1.141357    0.252363
H     0.004335   -2.526891    0.371768   -0.804547    0.023499    0.079863
H     2.655430    0.658119   -0.342686    0.255800   -0.891298    0.112948
H    -1.554927    1.198215   -0.034522    0.074604    0.159024   -0.033672
H    -2.238862   -2.064583    0.566301    0.046261   -0.008240   -0.004995
