13
* (null), Energy   -1000.0000000
C     1.646520    0.274089   -0.194207    0.042271    0.070543    0.461403
C     1.420577   -1.039677    0.025063    0.002031    0.002839    0.014749
N     0.135453   -1.525757    0.216409   -0.039174   -0.064844   -0.432352
C    -0.924794   -0.711788    0.195329    0.006557    0.007615    0.064517
N    -0.732121    0.590004   -0.024536    0.065736    0.107282    0.704770
C     0.536344    1.216046   -0.237856    0.011649    0.018664    0.119691
O    -2.146146   -1.110315    0.377217   -0.010672   -0.014946   -0.099693
O     0.589994    2.411153   -0.425909   -0.058563   -0.097059   -0.637647
H     2.206629   -1.794809    0.067952   -0.007126   -0.012592   -0.088742
H     0.004335   -2.526891    0.371768   -0.098836   -0.150731   -1.023074
H     2.655430    0.658119   -0.342686    0.062663    0.104354    0.687204
H    -1.554927    1.198215   -0.034522    0.084214    0.135928    0.909509
H    -2.238862   -2.064583    0.566301   -0.055942   -0.076445   -0.435952
13
* Frequency(6)  163.6483
C     1.651324    0.282106   -0.141771    0.042271    0.070543    0.461403
C     1.420807   -1.039354    0.026740    0.002031    0.002839    0.014749
N     0.131001   -1.533126    0.167274   -0.039174   -0.064844   -0.432352
C    -0.924049   -0.710922    0.202661    0.006557    0.007615    0.064517
N    -0.724651    0.602196    0.055557    0.065736    0.107282    0.704770
C     0.537668    1.218167   -0.224254    0.011649    0.018664    0.119691
O    -2.147359   -1.112013    0.365888   -0.010672   -0.014946   -0.099693
O     0.583338    2.400123   -0.498375   -0.058563   -0.097059   -0.637647
H     2.205819   -1.796240    0.057867   -0.007126   -0.012592   -0.088742
H    -0.006897   -2.544020    0.255501   -0.098836   -0.150731   -1.023074
H     2.662551    0.669978   -0.264589    0.062663    0.104354    0.687204
H    -1.545356    1.213662    0.068839    0.084214    0.135928    0.909509
H    -2.245220   -2.073270    0.516758   -0.055942   -0.076445   -0.435952
13
* Frequency(6)  163.6483
C     1.655607    0.289254   -0.095017    0.042271    0.070543    0.461403
C     1.421013   -1.039067    0.028234    0.002031    0.002839    0.014749
N     0.127032   -1.539697    0.123464   -0.039174   -0.064844   -0.432352
C    -0.923384   -0.710150    0.209198    0.006557    0.007615    0.064517
N    -0.717989    0.613067    0.126971    0.065736    0.107282    0.704770
C     0.538848    1.220058   -0.212125    0.011649    0.018664    0.119691
O    -2.148440   -1.113528    0.355786   -0.010672   -0.014946   -0.099693
O     0.577404    2.390288   -0.562987   -0.058563   -0.097059   -0.637647
H     2.205097   -1.797516    0.048875   -0.007126   -0.012592   -0.088742
H    -0.016912   -2.559294    0.151833   -0.098836   -0.150731   -1.023074
H     2.668901    0.680552   -0.194955    0.062663    0.104354    0.687204
H    -1.536823    1.227436    0.160999    0.084214    0.135928    0.909509
H    -2.250889   -2.081016    0.472583   -0.055942   -0.076445   -0.435952
13
* Frequency(6)  163.6483
C     1.658906    0.294758   -0.059012    0.042271    0.070543    0.461403
C     1.421172   -1.038845    0.029385    0.002031    0.002839    0.014749
N     0.123975   -1.544757    0.089726   -0.039174   -0.064844   -0.432352
C    -0.922873   -0.709556    0.214233    0.006557    0.007615    0.064517
N    -0.712860    0.621439    0.181967    0.065736    0.107282    0.704770
C     0.539757    1.221515   -0.202785    0.011649    0.018664    0.119691
O    -2.149273   -1.114694    0.348006   -0.010672   -0.014946   -0.099693
O     0.572834    2.382714   -0.612745   -0.058563   -0.097059   -0.637647
H     2.204541   -1.798499    0.041950   -0.007126   -0.012592   -0.088742
H    -0.024625   -2.571056    0.071999   -0.098836   -0.150731   -1.023074
H     2.673791    0.688695   -0.141330    0.062663    0.104354    0.687204
H    -1.530252    1.238043    0.231971    0.084214    0.135928    0.909509
H    -2.255254   -2.086982    0.438564   -0.055942   -0.076445   -0.435952
13
* Frequency(6)  163.6483
C     1.660862    0.298023   -0.037658    0.042271    0.070543    0.461403
C     1.421266   -1.038714    0.030068    0.002031    0.002839    0.014749
N     0.122162   -1.547758    0.069716   -0.039174   -0.064844   -0.432352
C    -0.922569   -0.709204    0.217219    0.006557    0.007615    0.064517
N    -0.709817    0.626404    0.214585    0.065736    0.107282    0.704770
C     0.540296    1.222378   -0.197246    0.011649    0.018664    0.119691
O    -2.149767   -1.115386    0.343392   -0.010672   -0.014946   -0.099693
O     0.570124    2.378222   -0.642256   -0.058563   -0.097059   -0.637647
H     2.204211   -1.799082    0.037843   -0.007126   -0.012592   -0.088742
H    -0.029199   -2.578032    0.024649   -0.098836   -0.150731   -1.023074
H     2.676691    0.693525   -0.109524    0.062663    0.104354    0.687204
H    -1.526354    1.244334    0.274065    0.084214    0.135928    0.909509
H    -2.257843   -2.090520    0.418387   -0.055942   -0.076445   -0.435952
13
* Frequency(6)  163.6483
C     1.661264    0.298694   -0.033268    0.042271    0.070543    0.461403
C     1.421285   -1.038687    0.030208    0.002031    0.002839    0.014749
N     0.121789   -1.548375    0.065603   -0.039174   -0.064844   -0.432352
C    -0.922507   -0.709131    0.217833    0.006557    0.007615    0.064517
N    -0.709192    0.627425    0.221291    0.065736    0.107282    0.704770
C     0.540407    1.222556   -0.196107    0.011649    0.018664    0.119691
O    -2.149869   -1.115528    0.342444   -0.010672   -0.014946   -0.099693
O     0.569567    2.377298   -0.648323   -0.058563   -0.097059   -0.637647
H     2.204144   -1.799201    0.036998   -0.007126   -0.012592   -0.088742
H    -0.030139   -2.579466    0.014915   -0.098836   -0.150731   -1.023074
H     2.677287    0.694518   -0.102986    0.062663    0.104354    0.687204
H    -1.525553    1.245627    0.282719    0.084214    0.135928    0.909509
H    -2.258375   -2.091247    0.414239   -0.055942   -0.076445   -0.435952
13
* Frequency(6)  163.6483
C     1.660069    0.296699   -0.046318    0.042271    0.070543    0.461403
C     1.421228   -1.038767    0.029791    0.002031    0.002839    0.014749
N     0.122897   -1.546541    0.077831   -0.039174   -0.064844   -0.432352
C    -0.922692   -0.709347    0.216008    0.006557    0.007615    0.064517
N    -0.711051    0.624390    0.201357    0.065736    0.107282    0.704770
C     0.540078    1.222028   -0.199493    0.011649    0.018664    0.119691
O    -2.149567   -1.115105    0.345264   -0.010672   -0.014946   -0.099693
O     0.571223    2.380043   -0.630288   -0.058563   -0.097059   -0.637647
H     2.204345   -1.798845    0.039508   -0.007126   -0.012592   -0.088742
H    -0.027344   -2.575203    0.043852   -0.098836   -0.150731   -1.023074
H     2.675515    0.691566   -0.122423    0.062663    0.104354    0.687204
H    -1.527935    1.241783    0.256994    0.084214    0.135928    0.909509
H    -2.256793   -2.089085    0.426570   -0.055942   -0.076445   -0.435952
13
* Frequency(6)  163.6483
C     1.657405    0.292254   -0.075394    0.042271    0.070543    0.461403
C     1.421100   -1.038946    0.028862    0.002031    0.002839    0.014749
N     0.125366   -1.542454    0.105077   -0.039174   -0.064844   -0.432352
C    -0.923106   -0.709827    0.211942    0.006557    0.007615    0.064517
N    -0.715194    0.617630    0.156944    0.065736    0.107282    0.704770
C     0.539344    1.220852   -0.207035    0.011649    0.018664    0.119691
O    -2.148894   -1.114163    0.351546   -0.010672   -0.014946   -0.099693
O     0.574914    2.386160   -0.590105   -0.058563   -0.097059   -0.637647
H     2.204794   -1.798052    0.045100   -0.007126   -0.012592   -0.088742
H    -0.021115   -2.565704    0.108323   -0.098836   -0.150731   -1.023074
H     2.671566    0.684990   -0.165729    0.062663    0.104354    0.687204
H    -1.533242    1.233217    0.199679    0.084214    0.135928    0.909509
H    -2.253268   -2.084268    0.454042   -0.055942   -0.076445   -0.435952
13
* Frequency(6)  163.6483
C     1.653562    0.285840   -0.117346    0.042271    0.070543    0.461403
C     1.420915   -1.039204    0.027520    0.002031    0.002839    0.014749
N     0.128927   -1.536559    0.144387   -0.039174   -0.064844   -0.432352
C    -0.923702   -0.710519    0.206076    0.006557    0.007615    0.064517
N    -0.721171    0.607875    0.092865    0.065736    0.107282    0.704770
C     0.538284    1.219155   -0.217918    0.011649    0.018664    0.119691
O    -2.147924   -1.112804    0.360610   -0.010672   -0.014946   -0.099693
O     0.580238    2.394985   -0.532129   -0.058563   -0.097059   -0.637647
H     2.205442   -1.796907    0.053169   -0.007126   -0.012592   -0.088742
H    -0.012129   -2.552000    0.201343   -0.098836   -0.150731   -1.023074
H     2.665868    0.675502   -0.228210    0.062663    0.104354    0.687204
H    -1.540898    1.220858    0.116985    0.084214    0.135928    0.909509
H    -2.248181   -2.077317    0.493680   -0.055942   -0.076445   -0.435952
13
* Frequency(6)  163.6483
C     1.648955    0.278153   -0.167627    0.042271    0.070543    0.461403
C     1.420694   -1.039514    0.025913    0.002031    0.002839    0.014749
N     0.133196   -1.529492    0.191502   -0.039174   -0.064844   -0.432352
C    -0.924416   -0.711349    0.199045    0.006557    0.007615    0.064517
N    -0.728334    0.596185    0.016064    0.065736    0.107282    0.704770
C     0.537015    1.217121   -0.230961    0.011649    0.018664    0.119691
O    -2.146761   -1.111176    0.371474   -0.010672   -0.014946   -0.099693
O     0.586620    2.405561   -0.462643   -0.058563   -0.097059   -0.637647
H     2.206219   -1.795534    0.062840   -0.007126   -0.012592   -0.088742
H    -0.001358   -2.535574    0.312831   -0.098836   -0.150731   -1.023074
H     2.659040    0.664130   -0.303097    0.062663    0.104354    0.687204
H    -1.550076    1.206046    0.017873    0.084214    0.135928    0.909509
H    -2.242085   -2.068987    0.541187   -0.055942   -0.076445   -0.435952
13
* Frequency(6)  163.6483
C     1.644085    0.270025   -0.220788    0.042271    0.070543    0.461403
C     1.420460   -1.039841    0.024214    0.002031    0.002839    0.014749
N     0.137710   -1.522021    0.241316   -0.039174   -0.064844   -0.432352
C    -0.925172   -0.712226    0.191612    0.006557    0.007615    0.064517
N    -0.735908    0.583824   -0.065137    0.065736    0.107282    0.704770
C     0.535673    1.214970   -0.244751    0.011649    0.018664    0.119691
O    -2.145531   -1.109454    0.382961   -0.010672   -0.014946   -0.099693
O     0.593368    2.416744   -0.389176   -0.058563   -0.097059   -0.637647
H     2.207040   -1.794084    0.073064   -0.007126   -0.012592   -0.088742
H     0.010029   -2.518207    0.430705   -0.098836   -0.150731   -1.023074
H     2.651820    0.652107   -0.382275    0.062663    0.104354    0.687204
H    -1.559778    1.190384   -0.086917    0.084214    0.135928    0.909509
H    -2.235640   -2.060179    0.591416   -0.055942   -0.076445   -0.435952
13
* Frequency(6)  163.6483
C     1.639478    0.262338   -0.271068    0.042271    0.070543    0.461403
C     1.420238   -1.040150    0.022606    0.002031    0.002839    0.014749
N     0.141979   -1.514955    0.288431   -0.039174   -0.064844   -0.432352
C    -0.925886   -0.713056    0.184581    0.006557    0.007615    0.064517
N    -0.743072    0.572133   -0.141938    0.065736    0.107282    0.704770
C     0.534403    1.212937   -0.257794    0.011649    0.018664    0.119691
O    -2.144368   -1.107825    0.393824   -0.010672   -0.014946   -0.099693
O     0.599749    2.427321   -0.319689   -0.058563   -0.097059   -0.637647
H     2.207816   -1.792711    0.082735   -0.007126   -0.012592   -0.088742
H     0.020800   -2.501782    0.542193   -0.098836   -0.150731   -1.023074
H     2.644991    0.640735   -0.457162    0.062663    0.104354    0.687204
H    -1.568955    1.175572   -0.186030    0.084214    0.135928    0.909509
H    -2.229544   -2.051848    0.638923   -0.055942   -0.076445   -0.435952
13
* Frequency(6)  163.6483
C     1.635635    0.255924   -0.313020    0.042271    0.070543    0.461403
C     1.420054   -1.040408    0.021265    0.002031    0.002839    0.014749
N     0.145540   -1.509059    0.327741   -0.039174   -0.064844   -0.432352
C    -0.926482   -0.713748    0.178715    0.006557    0.007615    0.064517
N    -0.749048    0.562379   -0.206017    0.065736    0.107282    0.704770
C     0.533344    1.211239   -0.268677    0.011649    0.018664    0.119691
O    -2.143398   -1.106466    0.402889   -0.010672   -0.014946   -0.099693
O     0.605074    2.436146   -0.261713   -0.058563   -0.097059   -0.637647
H     2.208464   -1.791566    0.090803   -0.007126   -0.012592   -0.088742
H     0.029786   -2.488077    0.635213   -0.098836   -0.150731   -1.023074
H     2.639294    0.631247   -0.519643    0.062663    0.104354    0.687204
H    -1.576612    1.163213   -0.268724    0.084214    0.135928    0.909509
H    -2.224457   -2.044898    0.678560   -0.055942   -0.076445   -0.435952
13
* Frequency(6)  163.6483
C     1.632971    0.251478   -0.342097    0.042271    0.070543    0.461403
C     1.419926   -1.040587    0.020336    0.002031    0.002839    0.014749
N     0.148009   -1.504973    0.354987   -0.039174   -0.064844   -0.432352
C    -0.926896   -0.714228    0.174650    0.006557    0.007615    0.064517
N    -0.753191    0.555618   -0.250430    0.065736    0.107282    0.704770
C     0.532610    1.210063   -0.276220    0.011649    0.018664    0.119691
O    -2.142725   -1.105524    0.409171   -0.010672   -0.014946   -0.099693
O     0.608765    2.442262   -0.221530   -0.058563   -0.097059   -0.637647
H     2.208913   -1.790773    0.096395   -0.007126   -0.012592   -0.088742
H     0.036014   -2.478578    0.699684   -0.098836   -0.150731   -1.023074
H     2.635345    0.624671   -0.562949    0.062663    0.104354    0.687204
H    -1.581919    1.154647   -0.326039    0.084214    0.135928    0.909509
H    -2.220932   -2.040080    0.706033   -0.055942   -0.076445   -0.435952
13
* Frequency(6)  163.6483
C     1.631776    0.249483   -0.355147    0.042271    0.070543    0.461403
C     1.419868   -1.040668    0.019919    0.002031    0.002839    0.014749
N     0.149117   -1.503139    0.367215   -0.039174   -0.064844   -0.432352
C    -0.927081   -0.714444    0.172825    0.006557    0.007615    0.064517
N    -0.755050    0.552584   -0.270364    0.065736    0.107282    0.704770
C     0.532281    1.209535   -0.279605    0.011649    0.018664    0.119691
O    -2.142424   -1.105101    0.411991   -0.010672   -0.014946   -0.099693
O     0.610421    2.445008   -0.203495   -0.058563   -0.097059   -0.637647
H     2.209115   -1.790417    0.098905   -0.007126   -0.012592   -0.088742
H     0.038810   -2.474315    0.728621   -0.098836   -0.150731   -1.023074
H     2.633573    0.621720   -0.582386    0.062663    0.104354    0.687204
H    -1.584301    1.150803   -0.351763    0.084214    0.135928    0.909509
H    -2.219350   -2.037918    0.718363   -0.055942   -0.076445   -0.435952
13
* Frequency(6)  163.6483
C     1.632178    0.250154   -0.350757    0.042271    0.070543    0.461403
C     1.419888   -1.040641    0.020059    0.002031    0.002839    0.014749
N     0.148744   -1.503756    0.363102   -0.039174   -0.064844   -0.432352
C    -0.927019   -0.714371    0.173439    0.006557    0.007615    0.064517
N    -0.754425    0.553604   -0.263658    0.065736    0.107282    0.704770
C     0.532392    1.209713   -0.278466    0.011649    0.018664    0.119691
O    -2.142525   -1.105244    0.411042   -0.010672   -0.014946   -0.099693
O     0.609864    2.444084   -0.209562   -0.058563   -0.097059   -0.637647
H     2.209047   -1.790537    0.098061   -0.007126   -0.012592   -0.088742
H     0.037869   -2.475749    0.718887   -0.098836   -0.150731   -1.023074
H     2.634169    0.622712   -0.575847    0.062663    0.104354    0.687204
H    -1.583500    1.152096   -0.343110    0.084214    0.135928    0.909509
H    -2.219882   -2.038646    0.714216   -0.055942   -0.076445   -0.435952
13
* Frequency(6)  163.6483
C     1.634134    0.253419   -0.329402    0.042271    0.070543    0.461403
C     1.419982   -1.040509    0.020742    0.002031    0.002839    0.014749
N     0.146931   -1.506757    0.343092   -0.039174   -0.064844   -0.432352
C    -0.926715   -0.714019    0.176425    0.006557    0.007615    0.064517
N    -0.751382    0.558570   -0.231040    0.065736    0.107282    0.704770
C     0.532931    1.210577   -0.272927    0.011649    0.018664    0.119691
O    -2.143019   -1.105935    0.406428   -0.010672   -0.014946   -0.099693
O     0.607153    2.439592   -0.239074   -0.058563   -0.097059   -0.637647
H     2.208717   -1.791119    0.093954   -0.007126   -0.012592   -0.088742
H     0.033295   -2.482725    0.671537   -0.098836   -0.150731   -1.023074
H     2.637069    0.627542   -0.544042    0.062663    0.104354    0.687204
H    -1.579602    1.158387   -0.301016    0.084214    0.135928    0.909509
H    -2.222471   -2.042184    0.694039   -0.055942   -0.076445   -0.435952
13
* Frequency(6)  163.6483
C     1.637433    0.258924   -0.293397    0.042271    0.070543    0.461403
C     1.420140   -1.040288    0.021893    0.002031    0.002839    0.014749
N     0.143874   -1.511817    0.309354   -0.039174   -0.064844   -0.432352
C    -0.926204   -0.713425    0.181459    0.006557    0.007615    0.064517
N    -0.746253    0.566941   -0.176044    0.065736    0.107282    0.704770
C     0.533840    1.212033   -0.263587    0.011649    0.018664    0.119691
O    -2.143852   -1.107102    0.398649   -0.010672   -0.014946   -0.099693
O     0.602583    2.432018   -0.288832   -0.058563   -0.097059   -0.637647
H     2.208161   -1.792102    0.087029   -0.007126   -0.012592   -0.088742
H     0.025583   -2.494487    0.591703   -0.098836   -0.150731   -1.023074
H     2.641959    0.635685   -0.490417    0.062663    0.104354    0.687204
H    -1.573031    1.168994   -0.230043    0.084214    0.135928    0.909509
H    -2.226836   -2.048149    0.660020   -0.055942   -0.076445   -0.435952
13
* Frequency(6)  163.6483
C     1.641716    0.266072   -0.246643    0.042271    0.070543    0.461403
C     1.420346   -1.040000    0.023387    0.002031    0.002839    0.014749
N     0.139905   -1.518387    0.265543   -0.039174   -0.064844   -0.432352
C    -0.925539   -0.712653    0.187997    0.006557    0.007615    0.064517
N    -0.739592    0.577812   -0.104630    0.065736    0.107282    0.704770
C     0.535020    1.213925   -0.251458    0.011649    0.018664    0.119691
O    -2.144933   -1.108616    0.388547   -0.010672   -0.014946   -0.099693
O     0.596649    2.422183   -0.353444   -0.058563   -0.097059   -0.637647
H     2.207439   -1.793378    0.078037   -0.007126   -0.012592   -0.088742
H     0.015568   -2.509761    0.488035   -0.098836   -0.150731   -1.023074
H     2.648309    0.646259   -0.420783    0.062663    0.104354    0.687204
H    -1.564497    1.182768   -0.137883    0.084214    0.135928    0.909509
H    -2.232505   -2.055895    0.615845   -0.055942   -0.076445   -0.435952
13
* Frequency(6)  163.6483
C     1.646520    0.274089   -0.194207    0.042271    0.070543    0.461403
C     1.420577   -1.039677    0.025063    0.002031    0.002839    0.014749
N     0.135453   -1.525757    0.216409   -0.039174   -0.064844   -0.432352
C    -0.924794   -0.711788    0.195329    0.006557    0.007615    0.064517
N    -0.732121    0.590004   -0.024536    0.065736    0.107282    0.704770
C     0.536344    1.216046   -0.237856    0.011649    0.018664    0.119691
O    -2.146146   -1.110315    0.377217   -0.010672   -0.014946   -0.099693
O     0.589994    2.411153   -0.425909   -0.058563   -0.097059   -0.637647
H     2.206629   -1.794809    0.067952   -0.007126   -0.012592   -0.088742
H     0.004335   -2.526891    0.371768   -0.098836   -0.150731   -1.023074
H     2.655430    0.658119   -0.342686    0.062663    0.104354    0.687204
H    -1.554927    1.198215   -0.034522    0.084214    0.135928    0.909509
H    -2.238862   -2.064583    0.566301   -0.055942   -0.076445   -0.435952
