13
* (null), Energy   -1000.0000000
C     1.393781    0.533776   -0.062691   -0.162817    0.033824    0.009401
C     1.168148   -0.779758    0.160441   -0.135483    0.082984    0.002136
N    -0.116197   -1.262094    0.357179   -0.135469    0.293359   -0.031954
C    -1.173993   -0.446979    0.334824   -0.214526    0.160809   -0.002344
N    -0.982141    0.854104    0.116669   -0.381581    0.272987   -0.004122
C     0.285100    1.476626   -0.101181   -0.041553    0.088988   -0.011195
O    -2.392774   -0.849779    0.515859    0.099799   -0.790244    0.109749
O     0.338858    2.672655   -0.290012    0.763814    0.028334   -0.077719
H     1.953348   -1.535224    0.201378   -0.203352    0.017369    0.019982
H    -0.254993   -2.258813    0.525028   -0.172886    0.303486   -0.044632
H     2.401547    0.916834   -0.219517   -0.202195    0.123315   -0.001086
H    -1.805505    1.460126    0.102516   -0.370153    0.297762   -0.014209
H    -2.476740   -1.809302    0.672136    1.031935   -0.887086    0.056710
13
* Frequency(9)  371.3685
C     1.375278    0.537620   -0.061622   -0.162817    0.033824    0.009401
C     1.152751   -0.770328    0.160684   -0.135483    0.082984    0.002136
N    -0.131592   -1.228755    0.353548   -0.135469    0.293359   -0.031954
C    -1.198373   -0.428704    0.334558   -0.214526    0.160809   -0.002344
N    -1.025506    0.885127    0.116200   -0.381581    0.272987   -0.004122
C     0.280378    1.486739   -0.102454   -0.041553    0.088988   -0.011195
O    -2.381433   -0.939586    0.528331    0.099799   -0.790244    0.109749
O     0.425662    2.675875   -0.298844    0.763814    0.028334   -0.077719
H     1.930238   -1.533250    0.203649   -0.203352    0.017369    0.019982
H    -0.274641   -2.224324    0.519956   -0.172886    0.303486   -0.044632
H     2.378568    0.930848   -0.219640   -0.202195    0.123315   -0.001086
H    -1.847571    1.493965    0.100901   -0.370153    0.297762   -0.014209
H    -2.359466   -1.910114    0.678581    1.031935   -0.887086    0.056710
13
* Frequency(9)  371.3685
C     1.358780    0.541047   -0.060670   -0.162817    0.033824    0.009401
C     1.139023   -0.761919    0.160900   -0.135483    0.082984    0.002136
N    -0.145319   -1.199029    0.350310   -0.135469    0.293359   -0.031954
C    -1.220110   -0.412409    0.334320   -0.214526    0.160809   -0.002344
N    -1.064171    0.912789    0.115783   -0.381581    0.272987   -0.004122
C     0.276167    1.495756   -0.103588   -0.041553    0.088988   -0.011195
O    -2.371320   -1.019662    0.539452    0.099799   -0.790244    0.109749
O     0.503059    2.678746   -0.306720    0.763814    0.028334   -0.077719
H     1.909633   -1.531490    0.205673   -0.203352    0.017369    0.019982
H    -0.292159   -2.193572    0.515433   -0.172886    0.303486   -0.044632
H     2.358080    0.943343   -0.219750   -0.202195    0.123315   -0.001086
H    -1.885078    1.524138    0.099461   -0.370153    0.297762   -0.014209
H    -2.254900   -2.000002    0.684327    1.031935   -0.887086    0.056710
13
* Frequency(9)  371.3685
C     1.346075    0.543687   -0.059936   -0.162817    0.033824    0.009401
C     1.128451   -0.755444    0.161067   -0.135483    0.082984    0.002136
N    -0.155890   -1.176137    0.347817   -0.135469    0.293359   -0.031954
C    -1.236851   -0.399860    0.334137   -0.214526    0.160809   -0.002344
N    -1.093947    0.934091    0.115461   -0.381581    0.272987   -0.004122
C     0.272925    1.502700   -0.104462   -0.041553    0.088988   -0.011195
O    -2.363532   -1.081327    0.548017    0.099799   -0.790244    0.109749
O     0.562662    2.680957   -0.312784    0.763814    0.028334   -0.077719
H     1.893764   -1.530135    0.207233   -0.203352    0.017369    0.019982
H    -0.305650   -2.169889    0.511951   -0.172886    0.303486   -0.044632
H     2.342302    0.952966   -0.219835   -0.202195    0.123315   -0.001086
H    -1.913963    1.547373    0.098352   -0.370153    0.297762   -0.014209
H    -2.174374   -2.069225    0.688752    1.031935   -0.887086    0.056710
13
* Frequency(9)  371.3685
C     1.338539    0.545252   -0.059501   -0.162817    0.033824    0.009401
C     1.122180   -0.751603    0.161166   -0.135483    0.082984    0.002136
N    -0.162160   -1.162560    0.346338   -0.135469    0.293359   -0.031954
C    -1.246779   -0.392418    0.334029   -0.214526    0.160809   -0.002344
N    -1.111608    0.946726    0.115270   -0.381581    0.272987   -0.004122
C     0.271002    1.506818   -0.104980   -0.041553    0.088988   -0.011195
O    -2.358913   -1.117901    0.553096    0.099799   -0.790244    0.109749
O     0.598013    2.682268   -0.316381    0.763814    0.028334   -0.077719
H     1.884353   -1.529331    0.208158   -0.203352    0.017369    0.019982
H    -0.313652   -2.155844    0.509885   -0.172886    0.303486   -0.044632
H     2.332944    0.958673   -0.219885   -0.202195    0.123315   -0.001086
H    -1.931094    1.561154    0.097695   -0.370153    0.297762   -0.014209
H    -2.126615   -2.110281    0.691377    1.031935   -0.887086    0.056710
13
* Frequency(9)  371.3685
C     1.336990    0.545574   -0.059411   -0.162817    0.033824    0.009401
C     1.120891   -0.750813    0.161186   -0.135483    0.082984    0.002136
N    -0.163449   -1.159769    0.346034   -0.135469    0.293359   -0.031954
C    -1.248821   -0.390888    0.334007   -0.214526    0.160809   -0.002344
N    -1.115238    0.949323    0.115231   -0.381581    0.272987   -0.004122
C     0.270606    1.507665   -0.105086   -0.041553    0.088988   -0.011195
O    -2.357964   -1.125420    0.554140    0.099799   -0.790244    0.109749
O     0.605280    2.682538   -0.317121    0.763814    0.028334   -0.077719
H     1.882418   -1.529166    0.208348   -0.203352    0.017369    0.019982
H    -0.315297   -2.152956    0.509460   -0.172886    0.303486   -0.044632
H     2.331020    0.959847   -0.219895   -0.202195    0.123315   -0.001086
H    -1.934616    1.563987    0.097560   -0.370153    0.297762   -0.014209
H    -2.116796   -2.118721    0.691917    1.031935   -0.887086    0.056710
13
* Frequency(9)  371.3685
C     1.341595    0.544617   -0.059677   -0.162817    0.033824    0.009401
C     1.124723   -0.753161    0.161126   -0.135483    0.082984    0.002136
N    -0.159617   -1.168066    0.346938   -0.135469    0.293359   -0.031954
C    -1.242753   -0.395436    0.334073   -0.214526    0.160809   -0.002344
N    -1.104445    0.941602    0.115348   -0.381581    0.272987   -0.004122
C     0.271782    1.505148   -0.104770   -0.041553    0.088988   -0.011195
O    -2.360787   -1.103069    0.551036    0.099799   -0.790244    0.109749
O     0.583677    2.681736   -0.314922    0.763814    0.028334   -0.077719
H     1.888170   -1.529657    0.207783   -0.203352    0.017369    0.019982
H    -0.310407   -2.161540    0.510723   -0.172886    0.303486   -0.044632
H     2.336739    0.956359   -0.219865   -0.202195    0.123315   -0.001086
H    -1.924146    1.555565    0.097962   -0.370153    0.297762   -0.014209
H    -2.145983   -2.093631    0.690313    1.031935   -0.887086    0.056710
13
* Frequency(9)  371.3685
C     1.351855    0.542486   -0.060270   -0.162817    0.033824    0.009401
C     1.133261   -0.758390    0.160991   -0.135483    0.082984    0.002136
N    -0.151081   -1.186553    0.348951   -0.135469    0.293359   -0.031954
C    -1.229234   -0.405570    0.334221   -0.214526    0.160809   -0.002344
N    -1.080399    0.924399    0.115608   -0.381581    0.272987   -0.004122
C     0.274400    1.499540   -0.104064   -0.041553    0.088988   -0.011195
O    -2.367076   -1.053270    0.544120    0.099799   -0.790244    0.109749
O     0.535543    2.679951   -0.310025    0.763814    0.028334   -0.077719
H     1.900984   -1.530751    0.206523   -0.203352    0.017369    0.019982
H    -0.299512   -2.180665    0.513535   -0.172886    0.303486   -0.044632
H     2.349481    0.948588   -0.219796   -0.202195    0.123315   -0.001086
H    -1.900820    1.536801    0.098857   -0.370153    0.297762   -0.014209
H    -2.211013   -2.037729    0.686739    1.031935   -0.887086    0.056710
13
* Frequency(9)  371.3685
C     1.366659    0.539410   -0.061124   -0.162817    0.033824    0.009401
C     1.145579   -0.765935    0.160797   -0.135483    0.082984    0.002136
N    -0.138763   -1.213226    0.351857   -0.135469    0.293359   -0.031954
C    -1.209729   -0.420191    0.334434   -0.214526    0.160809   -0.002344
N    -1.045705    0.899578    0.115982   -0.381581    0.272987   -0.004122
C     0.278178    1.491449   -0.103046   -0.041553    0.088988   -0.011195
O    -2.376150   -0.981419    0.534141    0.099799   -0.790244    0.109749
O     0.466096    2.677374   -0.302959    0.763814    0.028334   -0.077719
H     1.919474   -1.532331    0.204706   -0.203352    0.017369    0.019982
H    -0.283793   -2.208258    0.517593   -0.172886    0.303486   -0.044632
H     2.367865    0.937376   -0.219697   -0.202195    0.123315   -0.001086
H    -1.867166    1.509728    0.100149   -0.370153    0.297762   -0.014209
H    -2.304839   -1.957074    0.681583    1.031935   -0.887086    0.056710
13
* Frequency(9)  371.3685
C     1.384402    0.535724   -0.062149   -0.162817    0.033824    0.009401
C     1.160343   -0.774978    0.160564   -0.135483    0.082984    0.002136
N    -0.124001   -1.245194    0.355339   -0.135469    0.293359   -0.031954
C    -1.186351   -0.437715    0.334689   -0.214526    0.160809   -0.002344
N    -1.004123    0.869830    0.116431   -0.381581    0.272987   -0.004122
C     0.282706    1.481752   -0.101826   -0.041553    0.088988   -0.011195
O    -2.387025   -0.895304    0.522181    0.099799   -0.790244    0.109749
O     0.382860    2.674287   -0.294489    0.763814    0.028334   -0.077719
H     1.941634   -1.534223    0.202529   -0.203352    0.017369    0.019982
H    -0.264953   -2.241330    0.522457   -0.172886    0.303486   -0.044632
H     2.389898    0.923937   -0.219579   -0.202195    0.123315   -0.001086
H    -1.826829    1.477280    0.101697   -0.370153    0.297762   -0.014209
H    -2.417292   -1.860405    0.675403    1.031935   -0.887086    0.056710
13
* Frequency(9)  371.3685
C     1.403161    0.531827   -0.063232   -0.162817    0.033824    0.009401
C     1.175953   -0.784539    0.160318   -0.135483    0.082984    0.002136
N    -0.108393   -1.278994    0.359020   -0.135469    0.293359   -0.031954
C    -1.161634   -0.456243    0.334959   -0.214526    0.160809   -0.002344
N    -0.960159    0.838377    0.116906   -0.381581    0.272987   -0.004122
C     0.287494    1.471499   -0.100536   -0.041553    0.088988   -0.011195
O    -2.398523   -0.804255    0.509537    0.099799   -0.790244    0.109749
O     0.294856    2.671022   -0.285535    0.763814    0.028334   -0.077719
H     1.965063   -1.536224    0.200227   -0.203352    0.017369    0.019982
H    -0.245034   -2.276297    0.527599   -0.172886    0.303486   -0.044632
H     2.413195    0.909730   -0.219454   -0.202195    0.123315   -0.001086
H    -1.784181    1.442973    0.103334   -0.370153    0.297762   -0.014209
H    -2.536188   -1.758198    0.668869    1.031935   -0.887086    0.056710
13
* Frequency(9)  371.3685
C     1.420904    0.528141   -0.064257   -0.162817    0.033824    0.009401
C     1.190717   -0.793582    0.160085   -0.135483    0.082984    0.002136
N    -0.093630   -1.310962    0.362502   -0.135469    0.293359   -0.031954
C    -1.138257   -0.473767    0.335215   -0.214526    0.160809   -0.002344
N    -0.918577    0.808629    0.117355   -0.381581    0.272987   -0.004122
C     0.292022    1.461802   -0.099316   -0.041553    0.088988   -0.011195
O    -2.409399   -0.718139    0.497577    0.099799   -0.790244    0.109749
O     0.211621    2.667935   -0.277066    0.763814    0.028334   -0.077719
H     1.987223   -1.538117    0.198049   -0.203352    0.017369    0.019982
H    -0.226194   -2.309369    0.532463   -0.172886    0.303486   -0.044632
H     2.435228    0.896291   -0.219336   -0.202195    0.123315   -0.001086
H    -1.743844    1.410525    0.104883   -0.370153    0.297762   -0.014209
H    -2.648641   -1.661529    0.662689    1.031935   -0.887086    0.056710
13
* Frequency(9)  371.3685
C     1.435707    0.525066   -0.065111   -0.162817    0.033824    0.009401
C     1.203036   -0.801127    0.159891   -0.135483    0.082984    0.002136
N    -0.081313   -1.337635    0.365408   -0.135469    0.293359   -0.031954
C    -1.118752   -0.488388    0.335428   -0.214526    0.160809   -0.002344
N    -0.883883    0.783808    0.117730   -0.381581    0.272987   -0.004122
C     0.295800    1.453711   -0.098299   -0.041553    0.088988   -0.011195
O    -2.418473   -0.646289    0.487598    0.099799   -0.790244    0.109749
O     0.142173    2.665358   -0.269999    0.763814    0.028334   -0.077719
H     2.005712   -1.539696    0.196232   -0.203352    0.017369    0.019982
H    -0.210475   -2.336962    0.536521   -0.172886    0.303486   -0.044632
H     2.453612    0.885079   -0.219237   -0.202195    0.123315   -0.001086
H    -1.710189    1.383452    0.106175   -0.370153    0.297762   -0.014209
H    -2.742467   -1.580874    0.657533    1.031935   -0.887086    0.056710
13
* Frequency(9)  371.3685
C     1.445968    0.522934   -0.065704   -0.162817    0.033824    0.009401
C     1.211573   -0.806356    0.159757   -0.135483    0.082984    0.002136
N    -0.072776   -1.356121    0.367421   -0.135469    0.293359   -0.031954
C    -1.105233   -0.498522    0.335575   -0.214526    0.160809   -0.002344
N    -0.859836    0.766606    0.117990   -0.381581    0.272987   -0.004122
C     0.298419    1.448103   -0.097593   -0.041553    0.088988   -0.011195
O    -2.424762   -0.596490    0.480682    0.099799   -0.790244    0.109749
O     0.094040    2.663573   -0.265102    0.763814    0.028334   -0.077719
H     2.018527   -1.540791    0.194973   -0.203352    0.017369    0.019982
H    -0.199580   -2.356087    0.539334   -0.172886    0.303486   -0.044632
H     2.466354    0.877308   -0.219168   -0.202195    0.123315   -0.001086
H    -1.686863    1.364687    0.107070   -0.370153    0.297762   -0.014209
H    -2.807496   -1.524972    0.653959    1.031935   -0.887086    0.056710
13
* Frequency(9)  371.3685
C     1.450573    0.521978   -0.065970   -0.162817    0.033824    0.009401
C     1.215405   -0.808704    0.159696   -0.135483    0.082984    0.002136
N    -0.068944   -1.364419    0.368325   -0.135469    0.293359   -0.031954
C    -1.099165   -0.503070    0.335642   -0.214526    0.160809   -0.002344
N    -0.849044    0.758884    0.118107   -0.381581    0.272987   -0.004122
C     0.299594    1.445586   -0.097276   -0.041553    0.088988   -0.011195
O    -2.427585   -0.574139    0.477578    0.099799   -0.790244    0.109749
O     0.072436    2.662771   -0.262903    0.763814    0.028334   -0.077719
H     2.024278   -1.541282    0.194408   -0.203352    0.017369    0.019982
H    -0.194690   -2.364671    0.540596   -0.172886    0.303486   -0.044632
H     2.472073    0.873821   -0.219138   -0.202195    0.123315   -0.001086
H    -1.676394    1.356266    0.107472   -0.370153    0.297762   -0.014209
H    -2.836684   -1.499882    0.652356    1.031935   -0.887086    0.056710
13
* Frequency(9)  371.3685
C     1.449024    0.522300   -0.065880   -0.162817    0.033824    0.009401
C     1.214116   -0.807914    0.159716   -0.135483    0.082984    0.002136
N    -0.070233   -1.361628    0.368021   -0.135469    0.293359   -0.031954
C    -1.101206   -0.501540    0.335619   -0.214526    0.160809   -0.002344
N    -0.852674    0.761482    0.118067   -0.381581    0.272987   -0.004122
C     0.299198    1.446433   -0.097383   -0.041553    0.088988   -0.011195
O    -2.426635   -0.581658    0.478622    0.099799   -0.790244    0.109749
O     0.079704    2.663041   -0.263643    0.763814    0.028334   -0.077719
H     2.022344   -1.541117    0.194598   -0.203352    0.017369    0.019982
H    -0.196335   -2.361783    0.540171   -0.172886    0.303486   -0.044632
H     2.470149    0.874994   -0.219148   -0.202195    0.123315   -0.001086
H    -1.679916    1.359099    0.107337   -0.370153    0.297762   -0.014209
H    -2.826865   -1.508322    0.652895    1.031935   -0.887086    0.056710
13
* Frequency(9)  371.3685
C     1.441488    0.523865   -0.065445   -0.162817    0.033824    0.009401
C     1.207846   -0.804073    0.159815   -0.135483    0.082984    0.002136
N    -0.076503   -1.348050    0.366542   -0.135469    0.293359   -0.031954
C    -1.111135   -0.494097    0.335511   -0.214526    0.160809   -0.002344
N    -0.870335    0.774116    0.117877   -0.381581    0.272987   -0.004122
C     0.297275    1.450551   -0.097901   -0.041553    0.088988   -0.011195
O    -2.422016   -0.618231    0.483702    0.099799   -0.790244    0.109749
O     0.115054    2.664352   -0.267240    0.763814    0.028334   -0.077719
H     2.012932   -1.540313    0.195523   -0.203352    0.017369    0.019982
H    -0.204336   -2.347737    0.538106   -0.172886    0.303486   -0.044632
H     2.460791    0.880701   -0.219198   -0.202195    0.123315   -0.001086
H    -1.697047    1.372880    0.106679   -0.370153    0.297762   -0.014209
H    -2.779105   -1.549378    0.655520    1.031935   -0.887086    0.056710
13
* Frequency(9)  371.3685
C     1.428783    0.526504   -0.064711   -0.162817    0.033824    0.009401
C     1.197274   -0.797598    0.159982   -0.135483    0.082984    0.002136
N    -0.087074   -1.325158    0.364049   -0.135469    0.293359   -0.031954
C    -1.127875   -0.481549    0.335328   -0.214526    0.160809   -0.002344
N    -0.900111    0.795418    0.117555   -0.381581    0.272987   -0.004122
C     0.294033    1.457496   -0.098775   -0.041553    0.088988   -0.011195
O    -2.414229   -0.679897    0.492266    0.099799   -0.790244    0.109749
O     0.174658    2.666563   -0.273304    0.763814    0.028334   -0.077719
H     1.997064   -1.538958    0.197082   -0.203352    0.017369    0.019982
H    -0.217827   -2.324055    0.534623   -0.172886    0.303486   -0.044632
H     2.445013    0.890324   -0.219283   -0.202195    0.123315   -0.001086
H    -1.725932    1.396115    0.105570   -0.370153    0.297762   -0.014209
H    -2.698580   -1.618601    0.659945    1.031935   -0.887086    0.056710
13
* Frequency(9)  371.3685
C     1.412285    0.529932   -0.063759   -0.162817    0.033824    0.009401
C     1.183545   -0.789189    0.160198   -0.135483    0.082984    0.002136
N    -0.100801   -1.295433    0.360811   -0.135469    0.293359   -0.031954
C    -1.149613   -0.465254    0.335090   -0.214526    0.160809   -0.002344
N    -0.938776    0.823080    0.117137   -0.381581    0.272987   -0.004122
C     0.289822    1.466513   -0.099909   -0.041553    0.088988   -0.011195
O    -2.404116   -0.759972    0.503387    0.099799   -0.790244    0.109749
O     0.252055    2.669435   -0.281180    0.763814    0.028334   -0.077719
H     1.976458   -1.537198    0.199107   -0.203352    0.017369    0.019982
H    -0.235346   -2.293303    0.530100   -0.172886    0.303486   -0.044632
H     2.424525    0.902819   -0.219393   -0.202195    0.123315   -0.001086
H    -1.763439    1.426287    0.104131   -0.370153    0.297762   -0.014209
H    -2.594014   -1.708489    0.665691    1.031935   -0.887086    0.056710
13
* Frequency(9)  371.3685
C     1.393781    0.533776   -0.062691   -0.162817    0.033824    0.009401
C     1.168148   -0.779758    0.160441   -0.135483    0.082984    0.002136
N    -0.116197   -1.262094    0.357179   -0.135469    0.293359   -0.031954
C    -1.173993   -0.446979    0.334824   -0.214526    0.160809   -0.002344
N    -0.982141    0.854104    0.116669   -0.381581    0.272987   -0.004122
C     0.285100    1.476626   -0.101181   -0.041553    0.088988   -0.011195
O    -2.392774   -0.849779    0.515859    0.099799   -0.790244    0.109749
O     0.338858    2.672655   -0.290012    0.763814    0.028334   -0.077719
H     1.953348   -1.535224    0.201378   -0.203352    0.017369    0.019982
H    -0.254993   -2.258813    0.525028   -0.172886    0.303486   -0.044632
H     2.401547    0.916834   -0.219517   -0.202195    0.123315   -0.001086
H    -1.805505    1.460126    0.102516   -0.370153    0.297762   -0.014209
H    -2.476740   -1.809302    0.672136    1.031935   -0.887086    0.056710
