13
* (null), Energy   -1000.0000000
C     1.393781    0.533776   -0.062691    0.015816   -0.014715    0.024810
C     1.168148   -0.779758    0.160441   -0.025767   -0.025321   -0.038839
N    -0.116197   -1.262094    0.357179   -0.037430   -0.027354   -0.182624
C    -1.173993   -0.446979    0.334824   -0.004193    0.013235   -0.037511
N    -0.982141    0.854104    0.116669    0.030169    0.028331    0.100681
C     0.285100    1.476626   -0.101181    0.033339    0.025147    0.064864
O    -2.392774   -0.849779    0.515859    0.011925   -0.029528   -0.041119
O     0.338858    2.672655   -0.290012   -0.036992    0.013822   -0.037350
H     1.953348   -1.535224    0.201378   -0.024753   -0.016860    0.102567
H    -0.254993   -2.258813    0.525028    0.134943    0.297496    1.892337
H     2.401547    0.916834   -0.219517    0.037118   -0.058733    0.051771
H    -1.805505    1.460126    0.102516    0.013463   -0.001971   -0.226588
H    -2.476740   -1.809302    0.672136    0.109262    0.035471    0.405267
13
* Frequency(13)  542.9018
C     1.395579    0.532104   -0.059871    0.015816   -0.014715    0.024810
C     1.165220   -0.782636    0.156027   -0.025767   -0.025321   -0.038839
N    -0.120450   -1.265203    0.336425   -0.037430   -0.027354   -0.182624
C    -1.174469   -0.445475    0.330561   -0.004193    0.013235   -0.037511
N    -0.978712    0.857323    0.128111    0.030169    0.028331    0.100681
C     0.288889    1.479484   -0.093810    0.033339    0.025147    0.064864
O    -2.391419   -0.853135    0.511186    0.011925   -0.029528   -0.041119
O     0.334654    2.674225   -0.294257   -0.036992    0.013822   -0.037350
H     1.950535   -1.537140    0.213034   -0.024753   -0.016860    0.102567
H    -0.239658   -2.225005    0.740082    0.134943    0.297496    1.892337
H     2.405765    0.910159   -0.213633    0.037118   -0.058733    0.051771
H    -1.803975    1.459902    0.076765    0.013463   -0.001971   -0.226588
H    -2.464323   -1.805270    0.718193    0.109262    0.035471    0.405267
13
* Frequency(13)  542.9018
C     1.397181    0.530612   -0.057357    0.015816   -0.014715    0.024810
C     1.162609   -0.785202    0.152092   -0.025767   -0.025321   -0.038839
N    -0.124243   -1.267974    0.317920   -0.037430   -0.027354   -0.182624
C    -1.174894   -0.444134    0.326760   -0.004193    0.013235   -0.037511
N    -0.975655    0.860194    0.138313    0.030169    0.028331    0.100681
C     0.292267    1.482032   -0.087237    0.033339    0.025147    0.064864
O    -2.390211   -0.856127    0.507020    0.011925   -0.029528   -0.041119
O     0.330906    2.675626   -0.298041   -0.036992    0.013822   -0.037350
H     1.948027   -1.538848    0.223427   -0.024753   -0.016860    0.102567
H    -0.225984   -2.194859    0.931832    0.134943    0.297496    1.892337
H     2.409526    0.904207   -0.208387    0.037118   -0.058733    0.051771
H    -1.802611    1.459703    0.053805    0.013463   -0.001971   -0.226588
H    -2.453251   -1.801676    0.759258    0.109262    0.035471    0.405267
13
* Frequency(13)  542.9018
C     1.398416    0.529464   -0.055421    0.015816   -0.014715    0.024810
C     1.160598   -0.787178    0.149061   -0.025767   -0.025321   -0.038839
N    -0.127164   -1.270109    0.303669   -0.037430   -0.027354   -0.182624
C    -1.175221   -0.443101    0.323833   -0.004193    0.013235   -0.037511
N    -0.973301    0.862405    0.146169    0.030169    0.028331    0.100681
C     0.294869    1.483994   -0.082176    0.033339    0.025147    0.064864
O    -2.389280   -0.858431    0.503811    0.011925   -0.029528   -0.041119
O     0.328019    2.676705   -0.300956   -0.036992    0.013822   -0.037350
H     1.946095   -1.540164    0.231431   -0.024753   -0.016860    0.102567
H    -0.215454   -2.171645    1.079499    0.134943    0.297496    1.892337
H     2.412422    0.899624   -0.204347    0.037118   -0.058733    0.051771
H    -1.801560    1.459549    0.036124    0.013463   -0.001971   -0.226588
H    -2.444725   -1.798908    0.790883    0.109262    0.035471    0.405267
13
* Frequency(13)  542.9018
C     1.399148    0.528783   -0.054273    0.015816   -0.014715    0.024810
C     1.159406   -0.788350    0.147263   -0.025767   -0.025321   -0.038839
N    -0.128896   -1.271375    0.295217   -0.037430   -0.027354   -0.182624
C    -1.175415   -0.442488    0.322097   -0.004193    0.013235   -0.037511
N    -0.971905    0.863716    0.150829    0.030169    0.028331    0.100681
C     0.296412    1.485158   -0.079174    0.033339    0.025147    0.064864
O    -2.388728   -0.859798    0.501908    0.011925   -0.029528   -0.041119
O     0.326307    2.677344   -0.302684   -0.036992    0.013822   -0.037350
H     1.944950   -1.540944    0.236178   -0.024753   -0.016860    0.102567
H    -0.209208   -2.157876    1.167079    0.134943    0.297496    1.892337
H     2.414140    0.896906   -0.201951    0.037118   -0.058733    0.051771
H    -1.800937    1.459458    0.025637    0.013463   -0.001971   -0.226588
H    -2.439668   -1.797267    0.809639    0.109262    0.035471    0.405267
13
* Frequency(13)  542.9018
C     1.399298    0.528643   -0.054037    0.015816   -0.014715    0.024810
C     1.159161   -0.788591    0.146894   -0.025767   -0.025321   -0.038839
N    -0.129253   -1.271635    0.293479   -0.037430   -0.027354   -0.182624
C    -1.175455   -0.442362    0.321740   -0.004193    0.013235   -0.037511
N    -0.971618    0.863986    0.151787    0.030169    0.028331    0.100681
C     0.296729    1.485397   -0.078557    0.033339    0.025147    0.064864
O    -2.388615   -0.860079    0.501517    0.011925   -0.029528   -0.041119
O     0.325955    2.677476   -0.303040   -0.036992    0.013822   -0.037350
H     1.944714   -1.541105    0.237154   -0.024753   -0.016860    0.102567
H    -0.207925   -2.155045    1.185084    0.134943    0.297496    1.892337
H     2.414493    0.896347   -0.201459    0.037118   -0.058733    0.051771
H    -1.800809    1.459439    0.023481    0.013463   -0.001971   -0.226588
H    -2.438629   -1.796929    0.813495    0.109262    0.035471    0.405267
13
* Frequency(13)  542.9018
C     1.398851    0.529059   -0.054738    0.015816   -0.014715    0.024810
C     1.159889   -0.787874    0.147992   -0.025767   -0.025321   -0.038839
N    -0.128194   -1.270861    0.298645   -0.037430   -0.027354   -0.182624
C    -1.175337   -0.442737    0.322801   -0.004193    0.013235   -0.037511
N    -0.972471    0.863184    0.148939    0.030169    0.028331    0.100681
C     0.295786    1.484686   -0.080391    0.033339    0.025147    0.064864
O    -2.388952   -0.859244    0.502680    0.011925   -0.029528   -0.041119
O     0.327002    2.677085   -0.301983   -0.036992    0.013822   -0.037350
H     1.945414   -1.540628    0.234253   -0.024753   -0.016860    0.102567
H    -0.211741   -2.163460    1.131561    0.134943    0.297496    1.892337
H     2.413444    0.898008   -0.202923    0.037118   -0.058733    0.051771
H    -1.801190    1.459495    0.029890    0.013463   -0.001971   -0.226588
H    -2.441719   -1.797932    0.802033    0.109262    0.035471    0.405267
13
* Frequency(13)  542.9018
C     1.397854    0.529987   -0.056302    0.015816   -0.014715    0.024810
C     1.161513   -0.786279    0.150440   -0.025767   -0.025321   -0.038839
N    -0.125835   -1.269138    0.310153   -0.037430   -0.027354   -0.182624
C    -1.175073   -0.443571    0.325165   -0.004193    0.013235   -0.037511
N    -0.974372    0.861399    0.142595    0.030169    0.028331    0.100681
C     0.293685    1.483101   -0.084479    0.033339    0.025147    0.064864
O    -2.389704   -0.857383    0.505271    0.011925   -0.029528   -0.041119
O     0.329333    2.676214   -0.299630   -0.036992    0.013822   -0.037350
H     1.946974   -1.539565    0.227789   -0.024753   -0.016860    0.102567
H    -0.220245   -2.182207    1.012311    0.134943    0.297496    1.892337
H     2.411105    0.901710   -0.206185    0.037118   -0.058733    0.051771
H    -1.802038    1.459619    0.044169    0.013463   -0.001971   -0.226588
H    -2.448605   -1.800168    0.776494    0.109262    0.035471    0.405267
13
* Frequency(13)  542.9018
C     1.396416    0.531325   -0.058558    0.015816   -0.014715    0.024810
C     1.163856   -0.783977    0.153971   -0.025767   -0.025321   -0.038839
N    -0.122432   -1.266651    0.326758   -0.037430   -0.027354   -0.182624
C    -1.174691   -0.444774    0.328576   -0.004193    0.013235   -0.037511
N    -0.977115    0.858823    0.133440    0.030169    0.028331    0.100681
C     0.290654    1.480815   -0.090376    0.033339    0.025147    0.064864
O    -2.390788   -0.854698    0.509009    0.011925   -0.029528   -0.041119
O     0.332696    2.674957   -0.296234   -0.036992    0.013822   -0.037350
H     1.949225   -1.538032    0.218464   -0.024753   -0.016860    0.102567
H    -0.232514   -2.209256    0.840257    0.134943    0.297496    1.892337
H     2.407730    0.907050   -0.210893    0.037118   -0.058733    0.051771
H    -1.803262    1.459798    0.064770    0.013463   -0.001971   -0.226588
H    -2.458539   -1.803393    0.739646    0.109262    0.035471    0.405267
13
* Frequency(13)  542.9018
C     1.394693    0.532928   -0.061261    0.015816   -0.014715    0.024810
C     1.166664   -0.781217    0.158204   -0.025767   -0.025321   -0.038839
N    -0.118353   -1.263670    0.346659   -0.037430   -0.027354   -0.182624
C    -1.174234   -0.446217    0.332663   -0.004193    0.013235   -0.037511
N    -0.980403    0.855736    0.122469    0.030169    0.028331    0.100681
C     0.287021    1.478074   -0.097445    0.033339    0.025147    0.064864
O    -2.392087   -0.851480    0.513490    0.011925   -0.029528   -0.041119
O     0.336727    2.673451   -0.292164   -0.036992    0.013822   -0.037350
H     1.951922   -1.536195    0.207286   -0.024753   -0.016860    0.102567
H    -0.247219   -2.241675    0.634042    0.134943    0.297496    1.892337
H     2.403685    0.913450   -0.216534    0.037118   -0.058733    0.051771
H    -1.804729    1.460013    0.089463    0.013463   -0.001971   -0.226588
H    -2.470446   -1.807258    0.695483    0.109262    0.035471    0.405267
13
* Frequency(13)  542.9018
C     1.392870    0.534623   -0.064120    0.015816   -0.014715    0.024810
C     1.169633   -0.778300    0.162679   -0.025767   -0.025321   -0.038839
N    -0.114040   -1.260518    0.367700   -0.037430   -0.027354   -0.182624
C    -1.173751   -0.447741    0.336985   -0.004193    0.013235   -0.037511
N    -0.983879    0.852472    0.110869    0.030169    0.028331    0.100681
C     0.283179    1.475177   -0.104918    0.033339    0.025147    0.064864
O    -2.393461   -0.848078    0.518228    0.011925   -0.029528   -0.041119
O     0.340989    2.671858   -0.287860   -0.036992    0.013822   -0.037350
H     1.954774   -1.534253    0.195469   -0.024753   -0.016860    0.102567
H    -0.262767   -2.275952    0.416014    0.134943    0.297496    1.892337
H     2.399408    0.920217   -0.222499    0.037118   -0.058733    0.051771
H    -1.806280    1.460240    0.115569    0.013463   -0.001971   -0.226588
H    -2.483034   -1.811345    0.648789    0.109262    0.035471    0.405267
13
* Frequency(13)  542.9018
C     1.391147    0.536227   -0.066823    0.015816   -0.014715    0.024810
C     1.172441   -0.775540    0.166911   -0.025767   -0.025321   -0.038839
N    -0.109962   -1.257537    0.387601   -0.037430   -0.027354   -0.182624
C    -1.173294   -0.449184    0.341073   -0.004193    0.013235   -0.037511
N    -0.987167    0.849384    0.099897    0.030169    0.028331    0.100681
C     0.279546    1.472437   -0.111987    0.033339    0.025147    0.064864
O    -2.394761   -0.844861    0.522709    0.011925   -0.029528   -0.041119
O     0.345020    2.670352   -0.283790   -0.036992    0.013822   -0.037350
H     1.957472   -1.532415    0.184292   -0.024753   -0.016860    0.102567
H    -0.277472   -2.308371    0.209800    0.134943    0.297496    1.892337
H     2.395363    0.926617   -0.228141    0.037118   -0.058733    0.051771
H    -1.807748    1.460455    0.140261    0.013463   -0.001971   -0.226588
H    -2.494941   -1.815210    0.604626    0.109262    0.035471    0.405267
13
* Frequency(13)  542.9018
C     1.389709    0.537565   -0.069079    0.015816   -0.014715    0.024810
C     1.174784   -0.773238    0.170442   -0.025767   -0.025321   -0.038839
N    -0.106558   -1.255050    0.404206   -0.037430   -0.027354   -0.182624
C    -1.172913   -0.450387    0.344483   -0.004193    0.013235   -0.037511
N    -0.989910    0.846808    0.090743    0.030169    0.028331    0.100681
C     0.276515    1.470150   -0.117884    0.033339    0.025147    0.064864
O    -2.395845   -0.842176    0.526447    0.011925   -0.029528   -0.041119
O     0.348384    2.669095   -0.280394   -0.036992    0.013822   -0.037350
H     1.959722   -1.530882    0.174967   -0.024753   -0.016860    0.102567
H    -0.289742   -2.335420    0.037745    0.134943    0.297496    1.892337
H     2.391988    0.931957   -0.232848    0.037118   -0.058733    0.051771
H    -1.808972    1.460634    0.160863    0.013463   -0.001971   -0.226588
H    -2.504875   -1.818435    0.567779    0.109262    0.035471    0.405267
13
* Frequency(13)  542.9018
C     1.388712    0.538492   -0.070643    0.015816   -0.014715    0.024810
C     1.176407   -0.771643    0.172890   -0.025767   -0.025321   -0.038839
N    -0.104200   -1.253326    0.415714   -0.037430   -0.027354   -0.182624
C    -1.172649   -0.451221    0.346847   -0.004193    0.013235   -0.037511
N    -0.991811    0.845023    0.084399    0.030169    0.028331    0.100681
C     0.274414    1.468565   -0.121972    0.033339    0.025147    0.064864
O    -2.396596   -0.840315    0.529038    0.011925   -0.029528   -0.041119
O     0.350715    2.668224   -0.278041   -0.036992    0.013822   -0.037350
H     1.961282   -1.529820    0.168503   -0.024753   -0.016860    0.102567
H    -0.298245   -2.354167   -0.081505    0.134943    0.297496    1.892337
H     2.389649    0.935659   -0.236110    0.037118   -0.058733    0.051771
H    -1.809820    1.460758    0.175142    0.013463   -0.001971   -0.226588
H    -2.511761   -1.820671    0.542240    0.109262    0.035471    0.405267
13
* Frequency(13)  542.9018
C     1.388265    0.538908   -0.071344    0.015816   -0.014715    0.024810
C     1.177136   -0.770926    0.173988   -0.025767   -0.025321   -0.038839
N    -0.103141   -1.252553    0.420880   -0.037430   -0.027354   -0.182624
C    -1.172530   -0.451596    0.347908   -0.004193    0.013235   -0.037511
N    -0.992664    0.844222    0.081551    0.030169    0.028331    0.100681
C     0.273471    1.467854   -0.123806    0.033339    0.025147    0.064864
O    -2.396934   -0.839480    0.530201    0.011925   -0.029528   -0.041119
O     0.351761    2.667833   -0.276984   -0.036992    0.013822   -0.037350
H     1.961982   -1.529343    0.165602   -0.024753   -0.016860    0.102567
H    -0.302062   -2.362581   -0.135028    0.134943    0.297496    1.892337
H     2.388600    0.937320   -0.237574    0.037118   -0.058733    0.051771
H    -1.810201    1.460814    0.181551    0.013463   -0.001971   -0.226588
H    -2.514851   -1.821674    0.530777    0.109262    0.035471    0.405267
13
* Frequency(13)  542.9018
C     1.388415    0.538768   -0.071108    0.015816   -0.014715    0.024810
C     1.176891   -0.771167    0.173619   -0.025767   -0.025321   -0.038839
N    -0.103497   -1.252813    0.419142   -0.037430   -0.027354   -0.182624
C    -1.172570   -0.451470    0.347551   -0.004193    0.013235   -0.037511
N    -0.992377    0.844491    0.082509    0.030169    0.028331    0.100681
C     0.273788    1.468093   -0.123189    0.033339    0.025147    0.064864
O    -2.396820   -0.839761    0.529810    0.011925   -0.029528   -0.041119
O     0.351409    2.667965   -0.277340   -0.036992    0.013822   -0.037350
H     1.961747   -1.529504    0.166578   -0.024753   -0.016860    0.102567
H    -0.300778   -2.359751   -0.117023    0.134943    0.297496    1.892337
H     2.388953    0.936761   -0.237082    0.037118   -0.058733    0.051771
H    -1.810073    1.460795    0.179395    0.013463   -0.001971   -0.226588
H    -2.513811   -1.821336    0.534633    0.109262    0.035471    0.405267
13
* Frequency(13)  542.9018
C     1.389147    0.538087   -0.069960    0.015816   -0.014715    0.024810
C     1.175698   -0.772339    0.171821   -0.025767   -0.025321   -0.038839
N    -0.105229   -1.254079    0.410690   -0.037430   -0.027354   -0.182624
C    -1.172764   -0.450857    0.345815   -0.004193    0.013235   -0.037511
N    -0.990981    0.845802    0.087169    0.030169    0.028331    0.100681
C     0.275331    1.469257   -0.120187    0.033339    0.025147    0.064864
O    -2.396268   -0.841127    0.527907    0.011925   -0.029528   -0.041119
O     0.349697    2.668604   -0.279068   -0.036992    0.013822   -0.037350
H     1.960601   -1.530284    0.171325   -0.024753   -0.016860    0.102567
H    -0.294533   -2.345982   -0.029442    0.134943    0.297496    1.892337
H     2.390671    0.934043   -0.234686    0.037118   -0.058733    0.051771
H    -1.809450    1.460704    0.168908    0.013463   -0.001971   -0.226588
H    -2.508755   -1.819695    0.553390    0.109262    0.035471    0.405267
13
* Frequency(13)  542.9018
C     1.390381    0.536939   -0.068024    0.015816   -0.014715    0.024810
C     1.173688   -0.774315    0.168790   -0.025767   -0.025321   -0.038839
N    -0.108150   -1.256213    0.396439   -0.037430   -0.027354   -0.182624
C    -1.173092   -0.449824    0.342888   -0.004193    0.013235   -0.037511
N    -0.988626    0.848013    0.095025    0.030169    0.028331    0.100681
C     0.277933    1.471220   -0.115126    0.033339    0.025147    0.064864
O    -2.395338   -0.843432    0.524699    0.011925   -0.029528   -0.041119
O     0.346811    2.669683   -0.281983   -0.036992    0.013822   -0.037350
H     1.958670   -1.531599    0.179329   -0.024753   -0.016860    0.102567
H    -0.284003   -2.322767    0.118224    0.134943    0.297496    1.892337
H     2.393567    0.929460   -0.230646    0.037118   -0.058733    0.051771
H    -1.808399    1.460550    0.151226    0.013463   -0.001971   -0.226588
H    -2.500228   -1.816927    0.585014    0.109262    0.035471    0.405267
13
* Frequency(13)  542.9018
C     1.391984    0.535448   -0.065510    0.015816   -0.014715    0.024810
C     1.171077   -0.776881    0.164855   -0.025767   -0.025321   -0.038839
N    -0.111943   -1.258985    0.377934   -0.037430   -0.027354   -0.182624
C    -1.173516   -0.448483    0.339087   -0.004193    0.013235   -0.037511
N    -0.985569    0.850884    0.105227    0.030169    0.028331    0.100681
C     0.281311    1.473768   -0.108553    0.033339    0.025147    0.064864
O    -2.394129   -0.846424    0.520532    0.011925   -0.029528   -0.041119
O     0.343062    2.671084   -0.285767   -0.036992    0.013822   -0.037350
H     1.956161   -1.533308    0.189722   -0.024753   -0.016860    0.102567
H    -0.270329   -2.292622    0.309974    0.134943    0.297496    1.892337
H     2.397328    0.923508   -0.225400    0.037118   -0.058733    0.051771
H    -1.807035    1.460350    0.128266    0.013463   -0.001971   -0.226588
H    -2.489157   -1.813333    0.626080    0.109262    0.035471    0.405267
13
* Frequency(13)  542.9018
C     1.393781    0.533776   -0.062691    0.015816   -0.014715    0.024810
C     1.168148   -0.779758    0.160441   -0.025767   -0.025321   -0.038839
N    -0.116197   -1.262094    0.357179   -0.037430   -0.027354   -0.182624
C    -1.173993   -0.446979    0.334824   -0.004193    0.013235   -0.037511
N    -0.982141    0.854104    0.116669    0.030169    0.028331    0.100681
C     0.285100    1.476626   -0.101181    0.033339    0.025147    0.064864
O    -2.392774   -0.849779    0.515859    0.011925   -0.029528   -0.041119
O     0.338858    2.672655   -0.290012   -0.036992    0.013822   -0.037350
H     1.953348   -1.535224    0.201378   -0.024753   -0.016860    0.102567
H    -0.254993   -2.258813    0.525028    0.134943    0.297496    1.892337
H     2.401547    0.916834   -0.219517    0.037118   -0.058733    0.051771
H    -1.805505    1.460126    0.102516    0.013463   -0.001971   -0.226588
H    -2.476740   -1.809302    0.672136    0.109262    0.035471    0.405267
