13
* (null), Energy   -1000.0000000
C     1.393781    0.533776   -0.062691    0.000000    0.000000    0.000000
C     1.168148   -0.779758    0.160441    0.000000    0.000000    0.000000
N    -0.116197   -1.262094    0.357179    0.000000    0.000000    0.000000
C    -1.173993   -0.446979    0.334824    0.000000    0.000000    0.000000
N    -0.982141    0.854104    0.116669    0.000000    0.000000    0.000000
C     0.285100    1.476626   -0.101181    0.000000    0.000000    0.000000
O    -2.392774   -0.849779    0.515859    0.000000    0.000000    0.000000
O     0.338858    2.672655   -0.290012    0.000000    0.000000    0.000000
H     1.953348   -1.535224    0.201378    0.000000    0.000000    0.000000
H    -0.254993   -2.258813    0.525028    0.000000    0.000000    0.000000
H     2.401547    0.916834   -0.219517    0.000000    0.000000    0.000000
H    -1.805505    1.460126    0.102516    0.000000    0.000000    0.000000
H    -2.476740   -1.809302    0.672136    0.000000    0.000000    0.000000
13
* Frequency(2)    0.0000
C     1.393781    0.533776   -0.062691    0.000000    0.000000    0.000000
C     1.168148   -0.779758    0.160441    0.000000    0.000000    0.000000
N    -0.116197   -1.262094    0.357179    0.000000    0.000000    0.000000
C    -1.173993   -0.446979    0.334824    0.000000    0.000000    0.000000
N    -0.982141    0.854104    0.116669    0.000000    0.000000    0.000000
C     0.285100    1.476626   -0.101181    0.000000    0.000000    0.000000
O    -2.392774   -0.849779    0.515859    0.000000    0.000000    0.000000
O     0.338858    2.672655   -0.290012    0.000000    0.000000    0.000000
H     1.953348   -1.535224    0.201378    0.000000    0.000000    0.000000
H    -0.254993   -2.258813    0.525028    0.000000    0.000000    0.000000
H     2.401547    0.916834   -0.219517    0.000000    0.000000    0.000000
H    -1.805505    1.460126    0.102516    0.000000    0.000000    0.000000
H    -2.476740   -1.809302    0.672136    0.000000    0.000000    0.000000
13
* Frequency(2)    0.0000
C     1.393781    0.533776   -0.062691    0.000000    0.000000    0.000000
C     1.168148   -0.779758    0.160441    0.000000    0.000000    0.000000
N    -0.116197   -1.262094    0.357179    0.000000    0.000000    0.000000
C    -1.173993   -0.446979    0.334824    0.000000    0.000000    0.000000
N    -0.982141    0.854104    0.116669    0.000000    0.000000    0.000000
C     0.285100    1.476626   -0.101181    0.000000    0.000000    0.000000
O    -2.392774   -0.849779    0.515859    0.000000    0.000000    0.000000
O     0.338858    2.672655   -0.290012    0.000000    0.000000    0.000000
H     1.953348   -1.535224    0.201378    0.000000    0.000000    0.000000
H    -0.254993   -2.258813    0.525028    0.000000    0.000000    0.000000
H     2.401547    0.916834   -0.219517    0.000000    0.000000    0.000000
H    -1.805505    1.460126    0.102516    0.000000    0.000000    0.000000
H    -2.476740   -1.809302    0.672136    0.000000    0.000000    0.000000
13
* Frequency(2)    0.0000
C     1.393781    0.533776   -0.062691    0.000000    0.000000    0.000000
C     1.168148   -0.779758    0.160441    0.000000    0.000000    0.000000
N    -0.116197   -1.262094    0.357179    0.000000    0.000000    0.000000
C    -1.173993   -0.446979    0.334824    0.000000    0.000000    0.000000
N    -0.982141    0.854104    0.116669    0.000000    0.000000    0.000000
C     0.285100    1.476626   -0.101181    0.000000    0.000000    0.000000
O    -2.392774   -0.849779    0.515859    0.000000    0.000000    0.000000
O     0.338858    2.672655   -0.290012    0.000000    0.000000    0.000000
H     1.953348   -1.535224    0.201378    0.000000    0.000000    0.000000
H    -0.254993   -2.258813    0.525028    0.000000    0.000000    0.000000
H     2.401547    0.916834   -0.219517    0.000000    0.000000    0.000000
H    -1.805505    1.460126    0.102516    0.000000    0.000000    0.000000
H    -2.476740   -1.809302    0.672136    0.000000    0.000000    0.000000
13
* Frequency(2)    0.0000
C     1.393781    0.533776   -0.062691    0.000000    0.000000    0.000000
C     1.168148   -0.779758    0.160441    0.000000    0.000000    0.000000
N    -0.116197   -1.262094    0.357179    0.000000    0.000000    0.000000
C    -1.173993   -0.446979    0.334824    0.000000    0.000000    0.000000
N    -0.982141    0.854104    0.116669    0.000000    0.000000    0.000000
C     0.285100    1.476626   -0.101181    0.000000    0.000000    0.000000
O    -2.392774   -0.849779    0.515859    0.000000    0.000000    0.000000
O     0.338858    2.672655   -0.290012    0.000000    0.000000    0.000000
H     1.953348   -1.535224    0.201378    0.000000    0.000000    0.000000
H    -0.254993   -2.258813    0.525028    0.000000    0.000000    0.000000
H     2.401547    0.916834   -0.219517    0.000000    0.000000    0.000000
H    -1.805505    1.460126    0.102516    0.000000    0.000000    0.000000
H    -2.476740   -1.809302    0.672136    0.000000    0.000000    0.000000
13
* Frequency(2)    0.0000
C     1.393781    0.533776   -0.062691    0.000000    0.000000    0.000000
C     1.168148   -0.779758    0.160441    0.000000    0.000000    0.000000
N    -0.116197   -1.262094    0.357179    0.000000    0.000000    0.000000
C    -1.173993   -0.446979    0.334824    0.000000    0.000000    0.000000
N    -0.982141    0.854104    0.116669    0.000000    0.000000    0.000000
C     0.285100    1.476626   -0.101181    0.000000    0.000000    0.000000
O    -2.392774   -0.849779    0.515859    0.000000    0.000000    0.000000
O     0.338858    2.672655   -0.290012    0.000000    0.000000    0.000000
H     1.953348   -1.535224    0.201378    0.000000    0.000000    0.000000
H    -0.254993   -2.258813    0.525028    0.000000    0.000000    0.000000
H     2.401547    0.916834   -0.219517    0.000000    0.000000    0.000000
H    -1.805505    1.460126    0.102516    0.000000    0.000000    0.000000
H    -2.476740   -1.809302    0.672136    0.000000    0.000000    0.000000
13
* Frequency(2)    0.0000
C     1.393781    0.533776   -0.062691    0.000000    0.000000    0.000000
C     1.168148   -0.779758    0.160441    0.000000    0.000000    0.000000
N    -0.116197   -1.262094    0.357179    0.000000    0.000000    0.000000
C    -1.173993   -0.446979    0.334824    0.000000    0.000000    0.000000
N    -0.982141    0.854104    0.116669    0.000000    0.000000    0.000000
C     0.285100    1.476626   -0.101181    0.000000    0.000000    0.000000
O    -2.392774   -0.849779    0.515859    0.000000    0.000000    0.000000
O     0.338858    2.672655   -0.290012    0.000000    0.000000    0.000000
H     1.953348   -1.535224    0.201378    0.000000    0.000000    0.000000
H    -0.254993   -2.258813    0.525028    0.000000    0.000000    0.000000
H     2.401547    0.916834   -0.219517    0.000000    0.000000    0.000000
H    -1.805505    1.460126    0.102516    0.000000    0.000000    0.000000
H    -2.476740   -1.809302    0.672136    0.000000    0.000000    0.000000
13
* Frequency(2)    0.0000
C     1.393781    0.533776   -0.062691    0.000000    0.000000    0.000000
C     1.168148   -0.779758    0.160441    0.000000    0.000000    0.000000
N    -0.116197   -1.262094    0.357179    0.000000    0.000000    0.000000
C    -1.173993   -0.446979    0.334824    0.000000    0.000000    0.000000
N    -0.982141    0.854104    0.116669    0.000000    0.000000    0.000000
C     0.285100    1.476626   -0.101181    0.000000    0.000000    0.000000
O    -2.392774   -0.849779    0.515859    0.000000    0.000000    0.000000
O     0.338858    2.672655   -0.290012    0.000000    0.000000    0.000000
H     1.953348   -1.535224    0.201378    0.000000    0.000000    0.000000
H    -0.254993   -2.258813    0.525028    0.000000    0.000000    0.000000
H     2.401547    0.916834   -0.219517    0.000000    0.000000    0.000000
H    -1.805505    1.460126    0.102516    0.000000    0.000000    0.000000
H    -2.476740   -1.809302    0.672136    0.000000    0.000000    0.000000
13
* Frequency(2)    0.0000
C     1.393781    0.533776   -0.062691    0.000000    0.000000    0.000000
C     1.168148   -0.779758    0.160441    0.000000    0.000000    0.000000
N    -0.116197   -1.262094    0.357179    0.000000    0.000000    0.000000
C    -1.173993   -0.446979    0.334824    0.000000    0.000000    0.000000
N    -0.982141    0.854104    0.116669    0.000000    0.000000    0.000000
C     0.285100    1.476626   -0.101181    0.000000    0.000000    0.000000
O    -2.392774   -0.849779    0.515859    0.000000    0.000000    0.000000
O     0.338858    2.672655   -0.290012    0.000000    0.000000    0.000000
H     1.953348   -1.535224    0.201378    0.000000    0.000000    0.000000
H    -0.254993   -2.258813    0.525028    0.000000    0.000000    0.000000
H     2.401547    0.916834   -0.219517    0.000000    0.000000    0.000000
H    -1.805505    1.460126    0.102516    0.000000    0.000000    0.000000
H    -2.476740   -1.809302    0.672136    0.000000    0.000000    0.000000
13
* Frequency(2)    0.0000
C     1.393781    0.533776   -0.062691    0.000000    0.000000    0.000000
C     1.168148   -0.779758    0.160441    0.000000    0.000000    0.000000
N    -0.116197   -1.262094    0.357179    0.000000    0.000000    0.000000
C    -1.173993   -0.446979    0.334824    0.000000    0.000000    0.000000
N    -0.982141    0.854104    0.116669    0.000000    0.000000    0.000000
C     0.285100    1.476626   -0.101181    0.000000    0.000000    0.000000
O    -2.392774   -0.849779    0.515859    0.000000    0.000000    0.000000
O     0.338858    2.672655   -0.290012    0.000000    0.000000    0.000000
H     1.953348   -1.535224    0.201378    0.000000    0.000000    0.000000
H    -0.254993   -2.258813    0.525028    0.000000    0.000000    0.000000
H     2.401547    0.916834   -0.219517    0.000000    0.000000    0.000000
H    -1.805505    1.460126    0.102516    0.000000    0.000000    0.000000
H    -2.476740   -1.809302    0.672136    0.000000    0.000000    0.000000
13
* Frequency(2)    0.0000
C     1.393781    0.533776   -0.062691    0.000000    0.000000    0.000000
C     1.168148   -0.779758    0.160441    0.000000    0.000000    0.000000
N    -0.116197   -1.262094    0.357179    0.000000    0.000000    0.000000
C    -1.173993   -0.446979    0.334824    0.000000    0.000000    0.000000
N    -0.982141    0.854104    0.116669    0.000000    0.000000    0.000000
C     0.285100    1.476626   -0.101181    0.000000    0.000000    0.000000
O    -2.392774   -0.849779    0.515859    0.000000    0.000000    0.000000
O     0.338858    2.672655   -0.290012    0.000000    0.000000    0.000000
H     1.953348   -1.535224    0.201378    0.000000    0.000000    0.000000
H    -0.254993   -2.258813    0.525028    0.000000    0.000000    0.000000
H     2.401547    0.916834   -0.219517    0.000000    0.000000    0.000000
H    -1.805505    1.460126    0.102516    0.000000    0.000000    0.000000
H    -2.476740   -1.809302    0.672136    0.000000    0.000000    0.000000
13
* Frequency(2)    0.0000
C     1.393781    0.533776   -0.062691    0.000000    0.000000    0.000000
C     1.168148   -0.779758    0.160441    0.000000    0.000000    0.000000
N    -0.116197   -1.262094    0.357179    0.000000    0.000000    0.000000
C    -1.173993   -0.446979    0.334824    0.000000    0.000000    0.000000
N    -0.982141    0.854104    0.116669    0.000000    0.000000    0.000000
C     0.285100    1.476626   -0.101181    0.000000    0.000000    0.000000
O    -2.392774   -0.849779    0.515859    0.000000    0.000000    0.000000
O     0.338858    2.672655   -0.290012    0.000000    0.000000    0.000000
H     1.953348   -1.535224    0.201378    0.000000    0.000000    0.000000
H    -0.254993   -2.258813    0.525028    0.000000    0.000000    0.000000
H     2.401547    0.916834   -0.219517    0.000000    0.000000    0.000000
H    -1.805505    1.460126    0.102516    0.000000    0.000000    0.000000
H    -2.476740   -1.809302    0.672136    0.000000    0.000000    0.000000
13
* Frequency(2)    0.0000
C     1.393781    0.533776   -0.062691    0.000000    0.000000    0.000000
C     1.168148   -0.779758    0.160441    0.000000    0.000000    0.000000
N    -0.116197   -1.262094    0.357179    0.000000    0.000000    0.000000
C    -1.173993   -0.446979    0.334824    0.000000    0.000000    0.000000
N    -0.982141    0.854104    0.116669    0.000000    0.000000    0.000000
C     0.285100    1.476626   -0.101181    0.000000    0.000000    0.000000
O    -2.392774   -0.849779    0.515859    0.000000    0.000000    0.000000
O     0.338858    2.672655   -0.290012    0.000000    0.000000    0.000000
H     1.953348   -1.535224    0.201378    0.000000    0.000000    0.000000
H    -0.254993   -2.258813    0.525028    0.000000    0.000000    0.000000
H     2.401547    0.916834   -0.219517    0.000000    0.000000    0.000000
H    -1.805505    1.460126    0.102516    0.000000    0.000000    0.000000
H    -2.476740   -1.809302    0.672136    0.000000    0.000000    0.000000
13
* Frequency(2)    0.0000
C     1.393781    0.533776   -0.062691    0.000000    0.000000    0.000000
C     1.168148   -0.779758    0.160441    0.000000    0.000000    0.000000
N    -0.116197   -1.262094    0.357179    0.000000    0.000000    0.000000
C    -1.173993   -0.446979    0.334824    0.000000    0.000000    0.000000
N    -0.982141    0.854104    0.116669    0.000000    0.000000    0.000000
C     0.285100    1.476626   -0.101181    0.000000    0.000000    0.000000
O    -2.392774   -0.849779    0.515859    0.000000    0.000000    0.000000
O     0.338858    2.672655   -0.290012    0.000000    0.000000    0.000000
H     1.953348   -1.535224    0.201378    0.000000    0.000000    0.000000
H    -0.254993   -2.258813    0.525028    0.000000    0.000000    0.000000
H     2.401547    0.916834   -0.219517    0.000000    0.000000    0.000000
H    -1.805505    1.460126    0.102516    0.000000    0.000000    0.000000
H    -2.476740   -1.809302    0.672136    0.000000    0.000000    0.000000
13
* Frequency(2)    0.0000
C     1.393781    0.533776   -0.062691    0.000000    0.000000    0.000000
C     1.168148   -0.779758    0.160441    0.000000    0.000000    0.000000
N    -0.116197   -1.262094    0.357179    0.000000    0.000000    0.000000
C    -1.173993   -0.446979    0.334824    0.000000    0.000000    0.000000
N    -0.982141    0.854104    0.116669    0.000000    0.000000    0.000000
C     0.285100    1.476626   -0.101181    0.000000    0.000000    0.000000
O    -2.392774   -0.849779    0.515859    0.000000    0.000000    0.000000
O     0.338858    2.672655   -0.290012    0.000000    0.000000    0.000000
H     1.953348   -1.535224    0.201378    0.000000    0.000000    0.000000
H    -0.254993   -2.258813    0.525028    0.000000    0.000000    0.000000
H     2.401547    0.916834   -0.219517    0.000000    0.000000    0.000000
H    -1.805505    1.460126    0.102516    0.000000    0.000000    0.000000
H    -2.476740   -1.809302    0.672136    0.000000    0.000000    0.000000
13
* Frequency(2)    0.0000
C     1.393781    0.533776   -0.062691    0.000000    0.000000    0.000000
C     1.168148   -0.779758    0.160441    0.000000    0.000000    0.000000
N    -0.116197   -1.262094    0.357179    0.000000    0.000000    0.000000
C    -1.173993   -0.446979    0.334824    0.000000    0.000000    0.000000
N    -0.982141    0.854104    0.116669    0.000000    0.000000    0.000000
C     0.285100    1.476626   -0.101181    0.000000    0.000000    0.000000
O    -2.392774   -0.849779    0.515859    0.000000    0.000000    0.000000
O     0.338858    2.672655   -0.290012    0.000000    0.000000    0.000000
H     1.953348   -1.535224    0.201378    0.000000    0.000000    0.000000
H    -0.254993   -2.258813    0.525028    0.000000    0.000000    0.000000
H     2.401547    0.916834   -0.219517    0.000000    0.000000    0.000000
H    -1.805505    1.460126    0.102516    0.000000    0.000000    0.000000
H    -2.476740   -1.809302    0.672136    0.000000    0.000000    0.000000
13
* Frequency(2)    0.0000
C     1.393781    0.533776   -0.062691    0.000000    0.000000    0.000000
C     1.168148   -0.779758    0.160441    0.000000    0.000000    0.000000
N    -0.116197   -1.262094    0.357179    0.000000    0.000000    0.000000
C    -1.173993   -0.446979    0.334824    0.000000    0.000000    0.000000
N    -0.982141    0.854104    0.116669    0.000000    0.000000    0.000000
C     0.285100    1.476626   -0.101181    0.000000    0.000000    0.000000
O    -2.392774   -0.849779    0.515859    0.000000    0.000000    0.000000
O     0.338858    2.672655   -0.290012    0.000000    0.000000    0.000000
H     1.953348   -1.535224    0.201378    0.000000    0.000000    0.000000
H    -0.254993   -2.258813    0.525028    0.000000    0.000000    0.000000
H     2.401547    0.916834   -0.219517    0.000000    0.000000    0.000000
H    -1.805505    1.460126    0.102516    0.000000    0.000000    0.000000
H    -2.476740   -1.809302    0.672136    0.000000    0.000000    0.000000
13
* Frequency(2)    0.0000
C     1.393781    0.533776   -0.062691    0.000000    0.000000    0.000000
C     1.168148   -0.779758    0.160441    0.000000    0.000000    0.000000
N    -0.116197   -1.262094    0.357179    0.000000    0.000000    0.000000
C    -1.173993   -0.446979    0.334824    0.000000    0.000000    0.000000
N    -0.982141    0.854104    0.116669    0.000000    0.000000    0.000000
C     0.285100    1.476626   -0.101181    0.000000    0.000000    0.000000
O    -2.392774   -0.849779    0.515859    0.000000    0.000000    0.000000
O     0.338858    2.672655   -0.290012    0.000000    0.000000    0.000000
H     1.953348   -1.535224    0.201378    0.000000    0.000000    0.000000
H    -0.254993   -2.258813    0.525028    0.000000    0.000000    0.000000
H     2.401547    0.916834   -0.219517    0.000000    0.000000    0.000000
H    -1.805505    1.460126    0.102516    0.000000    0.000000    0.000000
H    -2.476740   -1.809302    0.672136    0.000000    0.000000    0.000000
13
* Frequency(2)    0.0000
C     1.393781    0.533776   -0.062691    0.000000    0.000000    0.000000
C     1.168148   -0.779758    0.160441    0.000000    0.000000    0.000000
N    -0.116197   -1.262094    0.357179    0.000000    0.000000    0.000000
C    -1.173993   -0.446979    0.334824    0.000000    0.000000    0.000000
N    -0.982141    0.854104    0.116669    0.000000    0.000000    0.000000
C     0.285100    1.476626   -0.101181    0.000000    0.000000    0.000000
O    -2.392774   -0.849779    0.515859    0.000000    0.000000    0.000000
O     0.338858    2.672655   -0.290012    0.000000    0.000000    0.000000
H     1.953348   -1.535224    0.201378    0.000000    0.000000    0.000000
H    -0.254993   -2.258813    0.525028    0.000000    0.000000    0.000000
H     2.401547    0.916834   -0.219517    0.000000    0.000000    0.000000
H    -1.805505    1.460126    0.102516    0.000000    0.000000    0.000000
H    -2.476740   -1.809302    0.672136    0.000000    0.000000    0.000000
13
* Frequency(2)    0.0000
C     1.393781    0.533776   -0.062691    0.000000    0.000000    0.000000
C     1.168148   -0.779758    0.160441    0.000000    0.000000    0.000000
N    -0.116197   -1.262094    0.357179    0.000000    0.000000    0.000000
C    -1.173993   -0.446979    0.334824    0.000000    0.000000    0.000000
N    -0.982141    0.854104    0.116669    0.000000    0.000000    0.000000
C     0.285100    1.476626   -0.101181    0.000000    0.000000    0.000000
O    -2.392774   -0.849779    0.515859    0.000000    0.000000    0.000000
O     0.338858    2.672655   -0.290012    0.000000    0.000000    0.000000
H     1.953348   -1.535224    0.201378    0.000000    0.000000    0.000000
H    -0.254993   -2.258813    0.525028    0.000000    0.000000    0.000000
H     2.401547    0.916834   -0.219517    0.000000    0.000000    0.000000
H    -1.805505    1.460126    0.102516    0.000000    0.000000    0.000000
H    -2.476740   -1.809302    0.672136    0.000000    0.000000    0.000000
