13
* (null), Energy   -1000.0000000
C     1.393781    0.533776   -0.062691    0.059444    0.011193   -0.007261
C     1.168148   -0.779758    0.160441    0.195746    0.080941   -0.031214
N    -0.116197   -1.262094    0.357179   -0.205095    0.040567    0.014140
C    -1.173993   -0.446979    0.334824    0.001388   -0.018571    0.002458
N    -0.982141    0.854104    0.116669    0.113067   -0.058947   -0.001840
C     0.285100    1.476626   -0.101181   -0.275219    0.010810    0.024647
O    -2.392774   -0.849779    0.515859    0.021722   -0.014622    0.000195
O     0.338858    2.672655   -0.290012    0.041563    0.000535   -0.004032
H     1.953348   -1.535224    0.201378    0.777610    0.676308   -0.179008
H    -0.254993   -2.258813    0.525028   -0.947470    0.152933    0.063851
H     2.401547    0.916834   -0.219517    0.549083   -1.202976    0.129861
H    -1.805505    1.460126    0.102516    0.070246   -0.136400    0.014498
H    -2.476740   -1.809302    0.672136    0.047002   -0.016235   -0.003738
13
* Frequency(25) 1214.4039
C     1.400537    0.535048   -0.063516    0.059444    0.011193   -0.007261
C     1.190394   -0.770560    0.156894    0.195746    0.080941   -0.031214
N    -0.139505   -1.257484    0.358786   -0.205095    0.040567    0.014140
C    -1.173835   -0.449089    0.335104    0.001388   -0.018571    0.002458
N    -0.969291    0.847405    0.116460    0.113067   -0.058947   -0.001840
C     0.253823    1.477854   -0.098380   -0.275219    0.010810    0.024647
O    -2.390306   -0.851441    0.515881    0.021722   -0.014622    0.000195
O     0.343582    2.672715   -0.290470    0.041563    0.000535   -0.004032
H     2.041720   -1.458365    0.181034    0.777610    0.676308   -0.179008
H    -0.362668   -2.241433    0.532285   -0.947470    0.152933    0.063851
H     2.463947    0.780121   -0.204758    0.549083   -1.202976    0.129861
H    -1.797522    1.444625    0.104163    0.070246   -0.136400    0.014498
H    -2.471398   -1.811147    0.671711    0.047002   -0.016235   -0.003738
13
* Frequency(25) 1214.4039
C     1.406560    0.536182   -0.064251    0.059444    0.011193   -0.007261
C     1.210229   -0.762358    0.153731    0.195746    0.080941   -0.031214
N    -0.160287   -1.253373    0.360219   -0.205095    0.040567    0.014140
C    -1.173695   -0.450971    0.335353    0.001388   -0.018571    0.002458
N    -0.957834    0.841432    0.116273    0.113067   -0.058947   -0.001840
C     0.225935    1.478950   -0.095883   -0.275219    0.010810    0.024647
O    -2.388105   -0.852923    0.515901    0.021722   -0.014622    0.000195
O     0.347793    2.672770   -0.290879    0.041563    0.000535   -0.004032
H     2.120515   -1.389835    0.162896    0.777610    0.676308   -0.179008
H    -0.458675   -2.225937    0.538755   -0.947470    0.152933    0.063851
H     2.519585    0.658224   -0.191600    0.549083   -1.202976    0.129861
H    -1.790404    1.430804    0.105632    0.070246   -0.136400    0.014498
H    -2.466636   -1.812792    0.671333    0.047002   -0.016235   -0.003738
13
* Frequency(25) 1214.4039
C     1.411199    0.537055   -0.064818    0.059444    0.011193   -0.007261
C     1.225504   -0.756042    0.151295    0.195746    0.080941   -0.031214
N    -0.176291   -1.250207    0.361323   -0.205095    0.040567    0.014140
C    -1.173586   -0.452420    0.335544    0.001388   -0.018571    0.002458
N    -0.949011    0.836832    0.116130    0.113067   -0.058947   -0.001840
C     0.204459    1.479793   -0.093960   -0.275219    0.010810    0.024647
O    -2.386410   -0.854064    0.515916    0.021722   -0.014622    0.000195
O     0.351036    2.672811   -0.291193    0.041563    0.000535   -0.004032
H     2.181194   -1.337060    0.148927    0.777610    0.676308   -0.179008
H    -0.532610   -2.214003    0.543737   -0.947470    0.152933    0.063851
H     2.562432    0.564352   -0.181466    0.549083   -1.202976    0.129861
H    -1.784922    1.420160    0.106764    0.070246   -0.136400    0.014498
H    -2.462968   -1.814058    0.671041    0.047002   -0.016235   -0.003738
13
* Frequency(25) 1214.4039
C     1.413950    0.537573   -0.065154    0.059444    0.011193   -0.007261
C     1.234563   -0.752296    0.149850    0.195746    0.080941   -0.031214
N    -0.185784   -1.248330    0.361977   -0.205095    0.040567    0.014140
C    -1.173522   -0.453280    0.335658    0.001388   -0.018571    0.002458
N    -0.943778    0.834104    0.116045    0.113067   -0.058947   -0.001840
C     0.191721    1.480293   -0.092819   -0.275219    0.010810    0.024647
O    -2.385404   -0.854740    0.515925    0.021722   -0.014622    0.000195
O     0.352960    2.672836   -0.291380    0.041563    0.000535   -0.004032
H     2.217184   -1.305759    0.140642    0.777610    0.676308   -0.179008
H    -0.576460   -2.206925    0.546692   -0.947470    0.152933    0.063851
H     2.587845    0.508676   -0.175456    0.549083   -1.202976    0.129861
H    -1.781671    1.413847    0.107435    0.070246   -0.136400    0.014498
H    -2.460793   -1.814810    0.670868    0.047002   -0.016235   -0.003738
13
* Frequency(25) 1214.4039
C     1.414516    0.537680   -0.065223    0.059444    0.011193   -0.007261
C     1.236426   -0.751526    0.149553    0.195746    0.080941   -0.031214
N    -0.187735   -1.247944    0.362112   -0.205095    0.040567    0.014140
C    -1.173509   -0.453456    0.335682    0.001388   -0.018571    0.002458
N    -0.942703    0.833543    0.116027    0.113067   -0.058947   -0.001840
C     0.189103    1.480396   -0.092585   -0.275219    0.010810    0.024647
O    -2.385198   -0.854880    0.515927    0.021722   -0.014622    0.000195
O     0.353355    2.672841   -0.291418    0.041563    0.000535   -0.004032
H     2.224582   -1.299325    0.138939    0.777610    0.676308   -0.179008
H    -0.585475   -2.205470    0.547300   -0.947470    0.152933    0.063851
H     2.593069    0.497230   -0.174220    0.549083   -1.202976    0.129861
H    -1.781003    1.412549    0.107573    0.070246   -0.136400    0.014498
H    -2.460346   -1.814964    0.670832    0.047002   -0.016235   -0.003738
13
* Frequency(25) 1214.4039
C     1.412834    0.537363   -0.065018    0.059444    0.011193   -0.007261
C     1.230889   -0.753815    0.150436    0.195746    0.080941   -0.031214
N    -0.181934   -1.249091    0.361712   -0.205095    0.040567    0.014140
C    -1.173548   -0.452931    0.335612    0.001388   -0.018571    0.002458
N    -0.945901    0.835210    0.116079    0.113067   -0.058947   -0.001840
C     0.196887    1.480090   -0.093282   -0.275219    0.010810    0.024647
O    -2.385812   -0.854466    0.515921    0.021722   -0.014622    0.000195
O     0.352180    2.672826   -0.291304    0.041563    0.000535   -0.004032
H     2.202588   -1.318453    0.144002    0.777610    0.676308   -0.179008
H    -0.558677   -2.209795    0.545494   -0.947470    0.152933    0.063851
H     2.577539    0.531255   -0.177893    0.549083   -1.202976    0.129861
H    -1.782990    1.416407    0.107163    0.070246   -0.136400    0.014498
H    -2.461675   -1.814505    0.670938    0.047002   -0.016235   -0.003738
13
* Frequency(25) 1214.4039
C     1.409088    0.536658   -0.064560    0.059444    0.011193   -0.007261
C     1.218554   -0.758916    0.152403    0.195746    0.080941   -0.031214
N    -0.169009   -1.251648    0.360821   -0.205095    0.040567    0.014140
C    -1.173635   -0.451761    0.335457    0.001388   -0.018571    0.002458
N    -0.953026    0.838925    0.116195    0.113067   -0.058947   -0.001840
C     0.214230    1.479409   -0.094835   -0.275219    0.010810    0.024647
O    -2.387181   -0.853545    0.515909    0.021722   -0.014622    0.000195
O     0.349561    2.672792   -0.291050    0.041563    0.000535   -0.004032
H     2.153585   -1.361072    0.155283    0.777610    0.676308   -0.179008
H    -0.498970   -2.219433    0.541470   -0.947470    0.152933    0.063851
H     2.542937    0.607063   -0.186077    0.549083   -1.202976    0.129861
H    -1.787416    1.425003    0.106249    0.070246   -0.136400    0.014498
H    -2.464637   -1.813482    0.671174    0.047002   -0.016235   -0.003738
13
* Frequency(25) 1214.4039
C     1.403684    0.535640   -0.063900    0.059444    0.011193   -0.007261
C     1.200756   -0.766275    0.155241    0.195746    0.080941   -0.031214
N    -0.150362   -1.255336    0.359535   -0.205095    0.040567    0.014140
C    -1.173762   -0.450072    0.335234    0.001388   -0.018571    0.002458
N    -0.963306    0.844284    0.116362    0.113067   -0.058947   -0.001840
C     0.239254    1.478426   -0.097076   -0.275219    0.010810    0.024647
O    -2.389156   -0.852215    0.515891    0.021722   -0.014622    0.000195
O     0.345782    2.672744   -0.290684    0.041563    0.000535   -0.004032
H     2.082884   -1.422563    0.171558    0.777610    0.676308   -0.179008
H    -0.412824   -2.233338    0.535665   -0.947470    0.152933    0.063851
H     2.493014    0.716440   -0.197884    0.549083   -1.202976    0.129861
H    -1.793803    1.437405    0.104931    0.070246   -0.136400    0.014498
H    -2.468910   -1.812006    0.671513    0.047002   -0.016235   -0.003738
13
* Frequency(25) 1214.4039
C     1.397206    0.534421   -0.063109    0.059444    0.011193   -0.007261
C     1.179425   -0.775096    0.158643    0.195746    0.080941   -0.031214
N    -0.128012   -1.259757    0.357994   -0.205095    0.040567    0.014140
C    -1.173913   -0.448049    0.334966    0.001388   -0.018571    0.002458
N    -0.975627    0.850708    0.116563    0.113067   -0.058947   -0.001840
C     0.269245    1.477248   -0.099762   -0.275219    0.010810    0.024647
O    -2.391523   -0.850622    0.515870    0.021722   -0.014622    0.000195
O     0.341253    2.672685   -0.290244    0.041563    0.000535   -0.004032
H     1.998145   -1.496263    0.191065    0.777610    0.676308   -0.179008
H    -0.309575   -2.250003    0.528706   -0.947470    0.152933    0.063851
H     2.433178    0.847532   -0.212035    0.549083   -1.202976    0.129861
H    -1.801458    1.452269    0.103351    0.070246   -0.136400    0.014498
H    -2.474032   -1.810237    0.671921    0.047002   -0.016235   -0.003738
13
* Frequency(25) 1214.4039
C     1.390357    0.533131   -0.062272    0.059444    0.011193   -0.007261
C     1.156872   -0.784421    0.162239    0.195746    0.080941   -0.031214
N    -0.104382   -1.264431    0.356365   -0.205095    0.040567    0.014140
C    -1.174073   -0.445909    0.334683    0.001388   -0.018571    0.002458
N    -0.988654    0.857499    0.116775    0.113067   -0.058947   -0.001840
C     0.300955    1.476003   -0.102601   -0.275219    0.010810    0.024647
O    -2.394026   -0.848937    0.515848    0.021722   -0.014622    0.000195
O     0.336464    2.672624   -0.289780    0.041563    0.000535   -0.004032
H     1.908552   -1.574185    0.211690    0.777610    0.676308   -0.179008
H    -0.200411   -2.267624    0.521350   -0.947470    0.152933    0.063851
H     2.369915    0.986135   -0.226998    0.549083   -1.202976    0.129861
H    -1.809552    1.467984    0.101681    0.070246   -0.136400    0.014498
H    -2.479448   -1.808366    0.672351    0.047002   -0.016235   -0.003738
13
* Frequency(25) 1214.4039
C     1.383879    0.531911   -0.061481    0.059444    0.011193   -0.007261
C     1.135541   -0.793242    0.165641    0.195746    0.080941   -0.031214
N    -0.082032   -1.268852    0.354824   -0.205095    0.040567    0.014140
C    -1.174224   -0.443885    0.334415    0.001388   -0.018571    0.002458
N    -1.000976    0.863923    0.116975    0.113067   -0.058947   -0.001840
C     0.330946    1.474825   -0.105287   -0.275219    0.010810    0.024647
O    -2.396393   -0.847344    0.515827    0.021722   -0.014622    0.000195
O     0.331935    2.672565   -0.289340    0.041563    0.000535   -0.004032
H     1.823813   -1.647884    0.231197    0.777610    0.676308   -0.179008
H    -0.097162   -2.284289    0.514392   -0.947470    0.152933    0.063851
H     2.310079    1.117227   -0.241149    0.549083   -1.202976    0.129861
H    -1.817207    1.482848    0.100101    0.070246   -0.136400    0.014498
H    -2.484569   -1.806597    0.672759    0.047002   -0.016235   -0.003738
13
* Frequency(25) 1214.4039
C     1.378474    0.530893   -0.060821    0.059444    0.011193   -0.007261
C     1.117743   -0.800601    0.168479    0.195746    0.080941   -0.031214
N    -0.063384   -1.272540    0.353538   -0.205095    0.040567    0.014140
C    -1.174350   -0.442197    0.334191    0.001388   -0.018571    0.002458
N    -1.011256    0.869283    0.117143    0.113067   -0.058947   -0.001840
C     0.355970    1.473842   -0.107528   -0.275219    0.010810    0.024647
O    -2.398368   -0.846014    0.515809    0.021722   -0.014622    0.000195
O     0.328156    2.672517   -0.288974    0.041563    0.000535   -0.004032
H     1.753111   -1.709375    0.247473    0.777610    0.676308   -0.179008
H    -0.011017   -2.298194    0.508586   -0.947470    0.152933    0.063851
H     2.260156    1.226604   -0.252956    0.549083   -1.202976    0.129861
H    -1.823593    1.495250    0.098783    0.070246   -0.136400    0.014498
H    -2.488843   -1.805121    0.673099    0.047002   -0.016235   -0.003738
13
* Frequency(25) 1214.4039
C     1.374728    0.530188   -0.060363    0.059444    0.011193   -0.007261
C     1.105408   -0.805702    0.170446    0.195746    0.080941   -0.031214
N    -0.050460   -1.275096    0.352647   -0.205095    0.040567    0.014140
C    -1.174438   -0.441027    0.334036    0.001388   -0.018571    0.002458
N    -1.018381    0.872997    0.117259    0.113067   -0.058947   -0.001840
C     0.373313    1.473161   -0.109081   -0.275219    0.010810    0.024647
O    -2.399737   -0.845093    0.515797    0.021722   -0.014622    0.000195
O     0.325536    2.672483   -0.288720    0.041563    0.000535   -0.004032
H     1.704108   -1.751994    0.258754    0.777610    0.676308   -0.179008
H     0.048690   -2.307832    0.504562   -0.947470    0.152933    0.063851
H     2.225554    1.302412   -0.261140    0.549083   -1.202976    0.129861
H    -1.828020    1.503845    0.097869    0.070246   -0.136400    0.014498
H    -2.491805   -1.804098    0.673334    0.047002   -0.016235   -0.003738
13
* Frequency(25) 1214.4039
C     1.373047    0.529872   -0.060158    0.059444    0.011193   -0.007261
C     1.099871   -0.807991    0.171329    0.195746    0.080941   -0.031214
N    -0.044659   -1.276244    0.352247   -0.205095    0.040567    0.014140
C    -1.174477   -0.440501    0.333967    0.001388   -0.018571    0.002458
N    -1.021579    0.874665    0.117311    0.113067   -0.058947   -0.001840
C     0.381098    1.472855   -0.109778   -0.275219    0.010810    0.024647
O    -2.400351   -0.844679    0.515791    0.021722   -0.014622    0.000195
O     0.324361    2.672468   -0.288606    0.041563    0.000535   -0.004032
H     1.682114   -1.771123    0.263817    0.777610    0.676308   -0.179008
H     0.075489   -2.312157    0.502756   -0.947470    0.152933    0.063851
H     2.210024    1.336437   -0.264813    0.549083   -1.202976    0.129861
H    -1.830007    1.507703    0.097459    0.070246   -0.136400    0.014498
H    -2.493134   -1.803639    0.673440    0.047002   -0.016235   -0.003738
13
* Frequency(25) 1214.4039
C     1.373613    0.529978   -0.060227    0.059444    0.011193   -0.007261
C     1.101734   -0.807221    0.171032    0.195746    0.080941   -0.031214
N    -0.046610   -1.275858    0.352382   -0.205095    0.040567    0.014140
C    -1.174464   -0.440678    0.333990    0.001388   -0.018571    0.002458
N    -1.020503    0.874104    0.117293    0.113067   -0.058947   -0.001840
C     0.378479    1.472958   -0.109544   -0.275219    0.010810    0.024647
O    -2.400144   -0.844818    0.515793    0.021722   -0.014622    0.000195
O     0.324756    2.672473   -0.288644    0.041563    0.000535   -0.004032
H     1.689513   -1.764688    0.262113    0.777610    0.676308   -0.179008
H     0.066474   -2.310702    0.503364   -0.947470    0.152933    0.063851
H     2.215248    1.324991   -0.263577    0.549083   -1.202976    0.129861
H    -1.829339    1.506406    0.097597    0.070246   -0.136400    0.014498
H    -2.492687   -1.803793    0.673404    0.047002   -0.016235   -0.003738
13
* Frequency(25) 1214.4039
C     1.376364    0.530496   -0.060563    0.059444    0.011193   -0.007261
C     1.110793   -0.803475    0.169587    0.195746    0.080941   -0.031214
N    -0.056102   -1.273980    0.353036   -0.205095    0.040567    0.014140
C    -1.174399   -0.441538    0.334104    0.001388   -0.018571    0.002458
N    -1.015270    0.871376    0.117208    0.113067   -0.058947   -0.001840
C     0.365741    1.473458   -0.108403   -0.275219    0.010810    0.024647
O    -2.399139   -0.845495    0.515802    0.021722   -0.014622    0.000195
O     0.326680    2.672498   -0.288831    0.041563    0.000535   -0.004032
H     1.725502   -1.733388    0.253829    0.777610    0.676308   -0.179008
H     0.022623   -2.303624    0.506319   -0.947470    0.152933    0.063851
H     2.240661    1.269316   -0.257567    0.549083   -1.202976    0.129861
H    -1.826087    1.500093    0.098268    0.070246   -0.136400    0.014498
H    -2.490512   -1.804545    0.673231    0.047002   -0.016235   -0.003738
13
* Frequency(25) 1214.4039
C     1.381003    0.531370   -0.061130    0.059444    0.011193   -0.007261
C     1.126068   -0.797159    0.167151    0.195746    0.080941   -0.031214
N    -0.072107   -1.270815    0.354140   -0.205095    0.040567    0.014140
C    -1.174291   -0.442987    0.334296    0.001388   -0.018571    0.002458
N    -1.006447    0.866776    0.117064    0.113067   -0.058947   -0.001840
C     0.344265    1.474302   -0.106480   -0.275219    0.010810    0.024647
O    -2.397444   -0.846636    0.515817    0.021722   -0.014622    0.000195
O     0.329923    2.672540   -0.289145    0.041563    0.000535   -0.004032
H     1.786182   -1.680613    0.239860    0.777610    0.676308   -0.179008
H    -0.051311   -2.291690    0.511302   -0.947470    0.152933    0.063851
H     2.283508    1.175443   -0.247433    0.549083   -1.202976    0.129861
H    -1.820606    1.489449    0.099399    0.070246   -0.136400    0.014498
H    -2.486844   -1.805812    0.672940    0.047002   -0.016235   -0.003738
13
* Frequency(25) 1214.4039
C     1.387026    0.532504   -0.061865    0.059444    0.011193   -0.007261
C     1.145903   -0.788957    0.163988    0.195746    0.080941   -0.031214
N    -0.092889   -1.266704    0.355573   -0.205095    0.040567    0.014140
C    -1.174151   -0.444869    0.334545    0.001388   -0.018571    0.002458
N    -0.994990    0.860803    0.116878    0.113067   -0.058947   -0.001840
C     0.316377    1.475397   -0.103982   -0.275219    0.010810    0.024647
O    -2.395243   -0.848118    0.515837    0.021722   -0.014622    0.000195
O     0.334135    2.672594   -0.289554    0.041563    0.000535   -0.004032
H     1.864977   -1.612083    0.221721    0.777610    0.676308   -0.179008
H    -0.147318   -2.276193    0.517772   -0.947470    0.152933    0.063851
H     2.339146    1.053546   -0.234275    0.549083   -1.202976    0.129861
H    -1.813488    1.475628    0.100868    0.070246   -0.136400    0.014498
H    -2.482081   -1.807457    0.672561    0.047002   -0.016235   -0.003738
13
* Frequency(25) 1214.4039
C     1.393781    0.533776   -0.062691    0.059444    0.011193   -0.007261
C     1.168148   -0.779758    0.160441    0.195746    0.080941   -0.031214
N    -0.116197   -1.262094    0.357179   -0.205095    0.040567    0.014140
C    -1.173993   -0.446979    0.334824    0.001388   -0.018571    0.002458
N    -0.982141    0.854104    0.116669    0.113067   -0.058947   -0.001840
C     0.285100    1.476626   -0.101181   -0.275219    0.010810    0.024647
O    -2.392774   -0.849779    0.515859    0.021722   -0.014622    0.000195
O     0.338858    2.672655   -0.290012    0.041563    0.000535   -0.004032
H     1.953348   -1.535224    0.201378    0.777610    0.676308   -0.179008
H    -0.254993   -2.258813    0.525028   -0.947470    0.152933    0.063851
H     2.401547    0.916834   -0.219517    0.549083   -1.202976    0.129861
H    -1.805505    1.460126    0.102516    0.070246   -0.136400    0.014498
H    -2.476740   -1.809302    0.672136    0.047002   -0.016235   -0.003738
