13
* (null), Energy   -1000.0000000
C     1.393781    0.533776   -0.062691   -0.096527    0.301512   -0.037010
C     1.168148   -0.779758    0.160441    0.017509   -0.063555    0.008009
N    -0.116197   -1.262094    0.357179   -0.120461    0.021104    0.008290
C    -1.173993   -0.446979    0.334824    0.201685    0.002986   -0.019672
N    -0.982141    0.854104    0.116669   -0.053948    0.119692   -0.013448
C     0.285100    1.476626   -0.101181    0.154108   -1.479140    0.212475
O    -2.392774   -0.849779    0.515859   -0.069166   -0.023274    0.010117
O     0.338858    2.672655   -0.290012    0.018441    0.892322   -0.138807
H     1.953348   -1.535224    0.201378    0.080172   -0.021141   -0.004831
H    -0.254993   -2.258813    0.525028    0.205665   -0.053818   -0.009822
H     2.401547    0.916834   -0.219517    0.166511   -0.437015    0.050573
H    -1.805505    1.460126    0.102516   -0.507694   -0.441700    0.118710
H    -2.476740   -1.809302    0.672136   -0.013942   -0.042403    0.007806
13
* Frequency(33) 1810.0312
C     1.382812    0.568041   -0.066897   -0.096527    0.301512   -0.037010
C     1.170138   -0.786981    0.161351    0.017509   -0.063555    0.008009
N    -0.129887   -1.259696    0.358122   -0.120461    0.021104    0.008290
C    -1.151072   -0.446640    0.332589    0.201685    0.002986   -0.019672
N    -0.988272    0.867706    0.115141   -0.053948    0.119692   -0.013448
C     0.302614    1.308529   -0.077035    0.154108   -1.479140    0.212475
O    -2.400635   -0.852424    0.517009   -0.069166   -0.023274    0.010117
O     0.340954    2.774062   -0.305787    0.018441    0.892322   -0.138807
H     1.962459   -1.537626    0.200829    0.080172   -0.021141   -0.004831
H    -0.231620   -2.264930    0.523912    0.205665   -0.053818   -0.009822
H     2.420470    0.867169   -0.213769    0.166511   -0.437015    0.050573
H    -1.863202    1.409929    0.116007   -0.507694   -0.441700    0.118710
H    -2.478324   -1.814120    0.673023   -0.013942   -0.042403    0.007806
13
* Frequency(33) 1810.0312
C     1.373030    0.598593   -0.070647   -0.096527    0.301512   -0.037010
C     1.171912   -0.793421    0.162163    0.017509   -0.063555    0.008009
N    -0.142093   -1.257557    0.358962   -0.120461    0.021104    0.008290
C    -1.130636   -0.446337    0.330595    0.201685    0.002986   -0.019672
N    -0.993738    0.879834    0.113778   -0.053948    0.119692   -0.013448
C     0.318229    1.158648   -0.055505    0.154108   -1.479140    0.212475
O    -2.407643   -0.854783    0.518034   -0.069166   -0.023274    0.010117
O     0.342822    2.864481   -0.319852    0.018441    0.892322   -0.138807
H     1.970583   -1.539769    0.200339    0.080172   -0.021141   -0.004831
H    -0.210780   -2.270383    0.522917    0.205665   -0.053818   -0.009822
H     2.437342    0.822886   -0.208645    0.166511   -0.437015    0.050573
H    -1.914646    1.365172    0.128035   -0.507694   -0.441700    0.118710
H    -2.479737   -1.818417    0.673814   -0.013942   -0.042403    0.007806
13
* Frequency(33) 1810.0312
C     1.365498    0.622121   -0.073535   -0.096527    0.301512   -0.037010
C     1.173279   -0.798381    0.162788    0.017509   -0.063555    0.008009
N    -0.151493   -1.255910    0.359609   -0.120461    0.021104    0.008290
C    -1.114897   -0.446104    0.329060    0.201685    0.002986   -0.019672
N    -0.997948    0.889174    0.112729   -0.053948    0.119692   -0.013448
C     0.330255    1.043225   -0.038925    0.154108   -1.479140    0.212475
O    -2.413041   -0.856599    0.518823   -0.069166   -0.023274    0.010117
O     0.344262    2.934112   -0.330684    0.018441    0.892322   -0.138807
H     1.976839   -1.541418    0.199962    0.080172   -0.021141   -0.004831
H    -0.194732   -2.274583    0.522150    0.205665   -0.053818   -0.009822
H     2.450336    0.788784   -0.204698    0.166511   -0.437015    0.050573
H    -1.954264    1.330705    0.137299   -0.507694   -0.441700    0.118710
H    -2.480825   -1.821726    0.674423   -0.013942   -0.042403    0.007806
13
* Frequency(33) 1810.0312
C     1.361031    0.636076   -0.075248   -0.096527    0.301512   -0.037010
C     1.174089   -0.801322    0.163158    0.017509   -0.063555    0.008009
N    -0.157068   -1.254933    0.359992   -0.120461    0.021104    0.008290
C    -1.105563   -0.445966    0.328150    0.201685    0.002986   -0.019672
N    -1.000445    0.894714    0.112106   -0.053948    0.119692   -0.013448
C     0.337388    0.974768   -0.029091    0.154108   -1.479140    0.212475
O    -2.416242   -0.857676    0.519291   -0.069166   -0.023274    0.010117
O     0.345115    2.975411   -0.337108    0.018441    0.892322   -0.138807
H     1.980550   -1.542397    0.199739    0.080172   -0.021141   -0.004831
H    -0.185213   -2.277073    0.521695    0.205665   -0.053818   -0.009822
H     2.458042    0.768559   -0.202358    0.166511   -0.437015    0.050573
H    -1.977761    1.310262    0.142793   -0.507694   -0.441700    0.118710
H    -2.481470   -1.823688    0.674785   -0.013942   -0.042403    0.007806
13
* Frequency(33) 1810.0312
C     1.360112    0.638945   -0.075600   -0.096527    0.301512   -0.037010
C     1.174256   -0.801927    0.163235    0.017509   -0.063555    0.008009
N    -0.158214   -1.254733    0.360071   -0.120461    0.021104    0.008290
C    -1.103644   -0.445937    0.327963    0.201685    0.002986   -0.019672
N    -1.000958    0.895853    0.111978   -0.053948    0.119692   -0.013448
C     0.338854    0.960695   -0.027069    0.154108   -1.479140    0.212475
O    -2.416900   -0.857898    0.519388   -0.069166   -0.023274    0.010117
O     0.345290    2.983901   -0.338429    0.018441    0.892322   -0.138807
H     1.981313   -1.542598    0.199693    0.080172   -0.021141   -0.004831
H    -0.183256   -2.277586    0.521602    0.205665   -0.053818   -0.009822
H     2.459626    0.764401   -0.201877    0.166511   -0.437015    0.050573
H    -1.982591    1.306059    0.143922   -0.507694   -0.441700    0.118710
H    -2.481603   -1.824092    0.674859   -0.013942   -0.042403    0.007806
13
* Frequency(33) 1810.0312
C     1.362842    0.630417   -0.074553   -0.096527    0.301512   -0.037010
C     1.173760   -0.800129    0.163008    0.017509   -0.063555    0.008009
N    -0.154807   -1.255330    0.359837   -0.120461    0.021104    0.008290
C    -1.109349   -0.446022    0.328519    0.201685    0.002986   -0.019672
N    -0.999432    0.892467    0.112359   -0.053948    0.119692   -0.013448
C     0.334495    1.002531   -0.033079    0.154108   -1.479140    0.212475
O    -2.414943   -0.857239    0.519102   -0.069166   -0.023274    0.010117
O     0.344769    2.958662   -0.334503    0.018441    0.892322   -0.138807
H     1.979045   -1.542000    0.199829    0.080172   -0.021141   -0.004831
H    -0.189073   -2.276063    0.521880    0.205665   -0.053818   -0.009822
H     2.454917    0.776761   -0.203307    0.166511   -0.437015    0.050573
H    -1.968231    1.318552    0.140565   -0.507694   -0.441700    0.118710
H    -2.481209   -1.822893    0.674638   -0.013942   -0.042403    0.007806
13
* Frequency(33) 1810.0312
C     1.368925    0.611416   -0.072221   -0.096527    0.301512   -0.037010
C     1.172657   -0.796124    0.162503    0.017509   -0.063555    0.008009
N    -0.147216   -1.256659    0.359314   -0.120461    0.021104    0.008290
C    -1.122058   -0.446210    0.329759    0.201685    0.002986   -0.019672
N    -0.996033    0.884925    0.113206   -0.053948    0.119692   -0.013448
C     0.324783    1.095742   -0.046468    0.154108   -1.479140    0.212475
O    -2.410585   -0.855773    0.518464   -0.069166   -0.023274    0.010117
O     0.343607    2.902431   -0.325755    0.018441    0.892322   -0.138807
H     1.973993   -1.540668    0.200134    0.080172   -0.021141   -0.004831
H    -0.202034   -2.272672    0.522499    0.205665   -0.053818   -0.009822
H     2.444424    0.804301   -0.206494    0.166511   -0.437015    0.050573
H    -1.936238    1.346387    0.133084   -0.507694   -0.441700    0.118710
H    -2.480330   -1.820220    0.674146   -0.013942   -0.042403    0.007806
13
* Frequency(33) 1810.0312
C     1.377702    0.584002   -0.068856   -0.096527    0.301512   -0.037010
C     1.171065   -0.790346    0.161775    0.017509   -0.063555    0.008009
N    -0.136263   -1.258578    0.358560   -0.120461    0.021104    0.008290
C    -1.140396   -0.446482    0.331547    0.201685    0.002986   -0.019672
N    -0.991128    0.874042    0.114429   -0.053948    0.119692   -0.013448
C     0.310772    1.230228   -0.065787    0.154108   -1.479140    0.212475
O    -2.404296   -0.853656    0.517544   -0.069166   -0.023274    0.010117
O     0.341930    2.821299   -0.313135    0.018441    0.892322   -0.138807
H     1.966703   -1.538746    0.200573    0.080172   -0.021141   -0.004831
H    -0.220733   -2.267779    0.523392    0.205665   -0.053818   -0.009822
H     2.429284    0.844035   -0.211092    0.166511   -0.437015    0.050573
H    -1.890077    1.386547    0.122291   -0.507694   -0.441700    0.118710
H    -2.479062   -1.816365    0.673436   -0.013942   -0.042403    0.007806
13
* Frequency(33) 1810.0312
C     1.388221    0.551145   -0.064823   -0.096527    0.301512   -0.037010
C     1.169157   -0.783420    0.160902    0.017509   -0.063555    0.008009
N    -0.123136   -1.260878    0.357657   -0.120461    0.021104    0.008290
C    -1.162374   -0.446807    0.333691    0.201685    0.002986   -0.019672
N    -0.985249    0.860999    0.115894   -0.053948    0.119692   -0.013448
C     0.293978    1.391415   -0.088941    0.154108   -1.479140    0.212475
O    -2.396759   -0.851120    0.516442   -0.069166   -0.023274    0.010117
O     0.339921    2.724060   -0.298008    0.018441    0.892322   -0.138807
H     1.957967   -1.536442    0.201099    0.080172   -0.021141   -0.004831
H    -0.243145   -2.261914    0.524462    0.205665   -0.053818   -0.009822
H     2.411139    0.891658   -0.216603    0.166511   -0.437015    0.050573
H    -1.834752    1.434681    0.109354   -0.507694   -0.441700    0.118710
H    -2.477543   -1.811744    0.672586   -0.013942   -0.042403    0.007806
13
* Frequency(33) 1810.0312
C     1.399342    0.516406   -0.060558   -0.096527    0.301512   -0.037010
C     1.167140   -0.776097    0.159980    0.017509   -0.063555    0.008009
N    -0.109257   -1.263310    0.356702   -0.120461    0.021104    0.008290
C    -1.185612   -0.447151    0.335957    0.201685    0.002986   -0.019672
N    -0.979033    0.847208    0.117444   -0.053948    0.119692   -0.013448
C     0.276222    1.561836   -0.113422    0.154108   -1.479140    0.212475
O    -2.388790   -0.848439    0.515276   -0.069166   -0.023274    0.010117
O     0.337796    2.621250   -0.282016    0.018441    0.892322   -0.138807
H     1.948730   -1.534006    0.201656    0.080172   -0.021141   -0.004831
H    -0.266841   -2.255713    0.525594    0.205665   -0.053818   -0.009822
H     2.391954    0.942009   -0.222430    0.166511   -0.437015    0.050573
H    -1.776258    1.485572    0.095677   -0.507694   -0.441700    0.118710
H    -2.475937   -1.806859    0.671686   -0.013942   -0.042403    0.007806
13
* Frequency(33) 1810.0312
C     1.409861    0.483549   -0.056525   -0.096527    0.301512   -0.037010
C     1.165232   -0.769171    0.159107    0.017509   -0.063555    0.008009
N    -0.096130   -1.265609    0.355798   -0.120461    0.021104    0.008290
C    -1.207590   -0.447476    0.338101    0.201685    0.002986   -0.019672
N    -0.973154    0.834165    0.118909   -0.053948    0.119692   -0.013448
C     0.259428    1.723023   -0.136576    0.154108   -1.479140    0.212475
O    -2.381252   -0.845902    0.514174   -0.069166   -0.023274    0.010117
O     0.335786    2.524010   -0.266889    0.018441    0.892322   -0.138807
H     1.939993   -1.531702    0.202183    0.080172   -0.021141   -0.004831
H    -0.289253   -2.249848    0.526664    0.205665   -0.053818   -0.009822
H     2.373809    0.989632   -0.227941    0.166511   -0.437015    0.050573
H    -1.720932    1.533705    0.082741   -0.507694   -0.441700    0.118710
H    -2.474417   -1.802238    0.670836   -0.013942   -0.042403    0.007806
13
* Frequency(33) 1810.0312
C     1.418638    0.456135   -0.053160   -0.096527    0.301512   -0.037010
C     1.163640   -0.763393    0.158379    0.017509   -0.063555    0.008009
N    -0.085178   -1.267528    0.355045   -0.120461    0.021104    0.008290
C    -1.225928   -0.447748    0.339890    0.201685    0.002986   -0.019672
N    -0.968249    0.823283    0.120132   -0.053948    0.119692   -0.013448
C     0.245417    1.857509   -0.155894    0.154108   -1.479140    0.212475
O    -2.374964   -0.843786    0.513254   -0.069166   -0.023274    0.010117
O     0.334110    2.442879   -0.254269    0.018441    0.892322   -0.138807
H     1.932704   -1.529780    0.202622    0.080172   -0.021141   -0.004831
H    -0.307953   -2.244955    0.527557    0.205665   -0.053818   -0.009822
H     2.358669    1.029366   -0.232539    0.166511   -0.437015    0.050573
H    -1.674772    1.573866    0.071948   -0.507694   -0.441700    0.118710
H    -2.473150   -1.798383    0.670126   -0.013942   -0.042403    0.007806
13
* Frequency(33) 1810.0312
C     1.424720    0.437135   -0.050828   -0.096527    0.301512   -0.037010
C     1.162536   -0.759388    0.157874    0.017509   -0.063555    0.008009
N    -0.077587   -1.268858    0.354522   -0.120461    0.021104    0.008290
C    -1.238637   -0.447936    0.341129    0.201685    0.002986   -0.019672
N    -0.964849    0.815740    0.120979   -0.053948    0.119692   -0.013448
C     0.235705    1.950721   -0.169284    0.154108   -1.479140    0.212475
O    -2.370605   -0.842319    0.512616   -0.069166   -0.023274    0.010117
O     0.332948    2.386647   -0.245522    0.018441    0.892322   -0.138807
H     1.927651   -1.528448    0.202926    0.080172   -0.021141   -0.004831
H    -0.320913   -2.241563    0.528176    0.205665   -0.053818   -0.009822
H     2.348176    1.056906   -0.235726    0.166511   -0.437015    0.050573
H    -1.642778    1.601700    0.064467   -0.507694   -0.441700    0.118710
H    -2.472271   -1.795711    0.669634   -0.013942   -0.042403    0.007806
13
* Frequency(33) 1810.0312
C     1.427451    0.428607   -0.049781   -0.096527    0.301512   -0.037010
C     1.162041   -0.757590    0.157648    0.017509   -0.063555    0.008009
N    -0.074180   -1.269455    0.354288   -0.120461    0.021104    0.008290
C    -1.244342   -0.448021    0.341686    0.201685    0.002986   -0.019672
N    -0.963323    0.812355    0.121359   -0.053948    0.119692   -0.013448
C     0.231346    1.992557   -0.175294    0.154108   -1.479140    0.212475
O    -2.368649   -0.841661    0.512330   -0.069166   -0.023274    0.010117
O     0.332426    2.361408   -0.241596    0.018441    0.892322   -0.138807
H     1.925384   -1.527850    0.203063    0.080172   -0.021141   -0.004831
H    -0.326730   -2.240041    0.528454    0.205665   -0.053818   -0.009822
H     2.343467    1.069266   -0.237156    0.166511   -0.437015    0.050573
H    -1.628419    1.614193    0.061109   -0.507694   -0.441700    0.118710
H    -2.471877   -1.794511    0.669413   -0.013942   -0.042403    0.007806
13
* Frequency(33) 1810.0312
C     1.426532    0.431476   -0.050133   -0.096527    0.301512   -0.037010
C     1.162208   -0.758195    0.157724    0.017509   -0.063555    0.008009
N    -0.075326   -1.269254    0.354367   -0.120461    0.021104    0.008290
C    -1.242423   -0.447992    0.341499    0.201685    0.002986   -0.019672
N    -0.963837    0.813493    0.121232   -0.053948    0.119692   -0.013448
C     0.232813    1.978483   -0.173272    0.154108   -1.479140    0.212475
O    -2.369307   -0.841883    0.512427   -0.069166   -0.023274    0.010117
O     0.332601    2.369898   -0.242916    0.018441    0.892322   -0.138807
H     1.926147   -1.528051    0.203017    0.080172   -0.021141   -0.004831
H    -0.324773   -2.240553    0.528361    0.205665   -0.053818   -0.009822
H     2.345051    1.065108   -0.236675    0.166511   -0.437015    0.050573
H    -1.633249    1.609991    0.062239   -0.507694   -0.441700    0.118710
H    -2.472009   -1.794915    0.669487   -0.013942   -0.042403    0.007806
13
* Frequency(33) 1810.0312
C     1.422065    0.445430   -0.051846   -0.096527    0.301512   -0.037010
C     1.163018   -0.761136    0.158094    0.017509   -0.063555    0.008009
N    -0.080901   -1.268278    0.354750   -0.120461    0.021104    0.008290
C    -1.233088   -0.447854    0.340588    0.201685    0.002986   -0.019672
N    -0.966334    0.819033    0.120609   -0.053948    0.119692   -0.013448
C     0.239945    1.910026   -0.163438    0.154108   -1.479140    0.212475
O    -2.372508   -0.842960    0.512895   -0.069166   -0.023274    0.010117
O     0.333455    2.411197   -0.249340    0.018441    0.892322   -0.138807
H     1.929857   -1.529029    0.202793    0.080172   -0.021141   -0.004831
H    -0.315255   -2.243044    0.527906    0.205665   -0.053818   -0.009822
H     2.352757    1.044883   -0.234335    0.166511   -0.437015    0.050573
H    -1.656746    1.589548    0.067733   -0.507694   -0.441700    0.118710
H    -2.472655   -1.796877    0.669849   -0.013942   -0.042403    0.007806
13
* Frequency(33) 1810.0312
C     1.414532    0.468958   -0.054734   -0.096527    0.301512   -0.037010
C     1.164384   -0.766096    0.158719    0.017509   -0.063555    0.008009
N    -0.090301   -1.266631    0.355397   -0.120461    0.021104    0.008290
C    -1.217350   -0.447621    0.339053    0.201685    0.002986   -0.019672
N    -0.970543    0.828373    0.119560   -0.053948    0.119692   -0.013448
C     0.251971    1.794603   -0.146858    0.154108   -1.479140    0.212475
O    -2.377905   -0.844776    0.513684   -0.069166   -0.023274    0.010117
O     0.334894    2.480828   -0.260172    0.018441    0.892322   -0.138807
H     1.936113   -1.530679    0.202416    0.080172   -0.021141   -0.004831
H    -0.299206   -2.247244    0.527140    0.205665   -0.053818   -0.009822
H     2.365751    1.010781   -0.230388    0.166511   -0.437015    0.050573
H    -1.696364    1.555081    0.076996   -0.507694   -0.441700    0.118710
H    -2.473743   -1.800186    0.670458   -0.013942   -0.042403    0.007806
13
* Frequency(33) 1810.0312
C     1.404751    0.499510   -0.058484   -0.096527    0.301512   -0.037010
C     1.166159   -0.772536    0.159531    0.017509   -0.063555    0.008009
N    -0.102507   -1.264492    0.356237   -0.120461    0.021104    0.008290
C    -1.196913   -0.447318    0.337060    0.201685    0.002986   -0.019672
N    -0.976010    0.840501    0.118197   -0.053948    0.119692   -0.013448
C     0.267586    1.644722   -0.125328    0.154108   -1.479140    0.212475
O    -2.384914   -0.847134    0.514709   -0.069166   -0.023274    0.010117
O     0.336763    2.571247   -0.274237    0.018441    0.892322   -0.138807
H     1.944237   -1.532821    0.201927    0.080172   -0.021141   -0.004831
H    -0.278366   -2.252697    0.526144    0.205665   -0.053818   -0.009822
H     2.382623    0.966498   -0.225264    0.166511   -0.437015    0.050573
H    -1.747808    1.510323    0.089025   -0.507694   -0.441700    0.118710
H    -2.475155   -1.804483    0.671249   -0.013942   -0.042403    0.007806
13
* Frequency(33) 1810.0312
C     1.393781    0.533776   -0.062691   -0.096527    0.301512   -0.037010
C     1.168148   -0.779758    0.160441    0.017509   -0.063555    0.008009
N    -0.116197   -1.262094    0.357179   -0.120461    0.021104    0.008290
C    -1.173993   -0.446979    0.334824    0.201685    0.002986   -0.019672
N    -0.982141    0.854104    0.116669   -0.053948    0.119692   -0.013448
C     0.285100    1.476626   -0.101181    0.154108   -1.479140    0.212475
O    -2.392774   -0.849779    0.515859   -0.069166   -0.023274    0.010117
O     0.338858    2.672655   -0.290012    0.018441    0.892322   -0.138807
H     1.953348   -1.535224    0.201378    0.080172   -0.021141   -0.004831
H    -0.254993   -2.258813    0.525028    0.205665   -0.053818   -0.009822
H     2.401547    0.916834   -0.219517    0.166511   -0.437015    0.050573
H    -1.805505    1.460126    0.102516   -0.507694   -0.441700    0.118710
H    -2.476740   -1.809302    0.672136   -0.013942   -0.042403    0.007806
