13
* (null), Energy   -1000.0000000
C     1.646520    0.274089   -0.194207   -0.000791    0.000051    0.000058
C     1.420577   -1.039677    0.025063    0.001426    0.000984   -0.000266
N     0.135453   -1.525757    0.216409   -0.005651   -0.027473    0.004487
C    -0.924794   -0.711788    0.195329   -0.001062    0.002396   -0.000298
N    -0.732121    0.590004   -0.024536    0.116070   -0.088009    0.001840
C     0.536344    1.216046   -0.237856   -0.001439    0.001332   -0.000029
O    -2.146146   -1.110315    0.377217    0.000679   -0.000775    0.000099
O     0.589994    2.411153   -0.425909    0.000227   -0.000730    0.000081
H     2.206629   -1.794809    0.067952   -0.001536    0.001335   -0.000035
H     0.004335   -2.526891    0.371768    0.051485    0.392753   -0.062237
H     2.655430    0.658119   -0.342686   -0.002220    0.001188   -0.000017
H    -1.554927    1.198215   -0.034522   -1.571317    1.160803   -0.020126
H    -2.238862   -2.064583    0.566301   -0.002911    0.015779   -0.001993
13
* Frequency(36) 3529.9697
C     1.646430    0.274095   -0.194201   -0.000791    0.000051    0.000058
C     1.420739   -1.039565    0.025033    0.001426    0.000984   -0.000266
N     0.134811   -1.528879    0.216919   -0.005651   -0.027473    0.004487
C    -0.924915   -0.711515    0.195295   -0.001062    0.002396   -0.000298
N    -0.718930    0.580002   -0.024327    0.116070   -0.088009    0.001840
C     0.536180    1.216197   -0.237859   -0.001439    0.001332   -0.000029
O    -2.146069   -1.110403    0.377229    0.000679   -0.000775    0.000099
O     0.590020    2.411070   -0.425900    0.000227   -0.000730    0.000081
H     2.206455   -1.794657    0.067948   -0.001536    0.001335   -0.000035
H     0.010186   -2.482256    0.364695    0.051485    0.392753   -0.062237
H     2.655178    0.658254   -0.342688   -0.002220    0.001188   -0.000017
H    -1.733499    1.330134   -0.036810   -1.571317    1.160803   -0.020126
H    -2.239193   -2.062789    0.566075   -0.002911    0.015779   -0.001993
13
* Frequency(36) 3529.9697
C     1.646350    0.274100   -0.194195   -0.000791    0.000051    0.000058
C     1.420883   -1.039466    0.025006    0.001426    0.000984   -0.000266
N     0.134238   -1.531663    0.217373   -0.005651   -0.027473    0.004487
C    -0.925022   -0.711272    0.195265   -0.001062    0.002396   -0.000298
N    -0.707169    0.571084   -0.024141    0.116070   -0.088009    0.001840
C     0.536035    1.216332   -0.237862   -0.001439    0.001332   -0.000029
O    -2.146000   -1.110481    0.377239    0.000679   -0.000775    0.000099
O     0.590043    2.410996   -0.425892    0.000227   -0.000730    0.000081
H     2.206299   -1.794522    0.067944   -0.001536    0.001335   -0.000035
H     0.015403   -2.442459    0.358389    0.051485    0.392753   -0.062237
H     2.654953    0.658374   -0.342690   -0.002220    0.001188   -0.000017
H    -1.892720    1.447758   -0.038849   -1.571317    1.160803   -0.020126
H    -2.239488   -2.061191    0.565873   -0.002911    0.015779   -0.001993
13
* Frequency(36) 3529.9697
C     1.646288    0.274104   -0.194190   -0.000791    0.000051    0.000058
C     1.420994   -1.039389    0.024986    0.001426    0.000984   -0.000266
N     0.133797   -1.533807    0.217724   -0.005651   -0.027473    0.004487
C    -0.925105   -0.711085    0.195241   -0.001062    0.002396   -0.000298
N    -0.698112    0.564217   -0.023997    0.116070   -0.088009    0.001840
C     0.535922    1.216436   -0.237864   -0.001439    0.001332   -0.000029
O    -2.145947   -1.110542    0.377246    0.000679   -0.000775    0.000099
O     0.590060    2.410939   -0.425886    0.000227   -0.000730    0.000081
H     2.206179   -1.794418    0.067942   -0.001536    0.001335   -0.000035
H     0.019421   -2.411811    0.353532    0.051485    0.392753   -0.062237
H     2.654779    0.658467   -0.342691   -0.002220    0.001188   -0.000017
H    -2.015336    1.538340   -0.040419   -1.571317    1.160803   -0.020126
H    -2.239715   -2.059959    0.565717   -0.002911    0.015779   -0.001993
13
* Frequency(36) 3529.9697
C     1.646252    0.274106   -0.194188   -0.000791    0.000051    0.000058
C     1.421060   -1.039343    0.024973    0.001426    0.000984   -0.000266
N     0.133536   -1.535078    0.217931   -0.005651   -0.027473    0.004487
C    -0.925154   -0.710975    0.195228   -0.001062    0.002396   -0.000298
N    -0.692740    0.560144   -0.023912    0.116070   -0.088009    0.001840
C     0.535856    1.216498   -0.237866   -0.001439    0.001332   -0.000029
O    -2.145916   -1.110578    0.377251    0.000679   -0.000775    0.000099
O     0.590071    2.410905   -0.425882    0.000227   -0.000730    0.000081
H     2.206108   -1.794356    0.067940   -0.001536    0.001335   -0.000035
H     0.021804   -2.393634    0.350652    0.051485    0.392753   -0.062237
H     2.654677    0.658522   -0.342692   -0.002220    0.001188   -0.000017
H    -2.088059    1.592064   -0.041351   -1.571317    1.160803   -0.020126
H    -2.239850   -2.059229    0.565625   -0.002911    0.015779   -0.001993
13
* Frequency(36) 3529.9697
C     1.646244    0.274107   -0.194187   -0.000791    0.000051    0.000058
C     1.421074   -1.039334    0.024971    0.001426    0.000984   -0.000266
N     0.133482   -1.535339    0.217974   -0.005651   -0.027473    0.004487
C    -0.925164   -0.710952    0.195225   -0.001062    0.002396   -0.000298
N    -0.691635    0.559306   -0.023895    0.116070   -0.088009    0.001840
C     0.535842    1.216510   -0.237866   -0.001439    0.001332   -0.000029
O    -2.145909   -1.110585    0.377252    0.000679   -0.000775    0.000099
O     0.590073    2.410898   -0.425881    0.000227   -0.000730    0.000081
H     2.206094   -1.794343    0.067940   -0.001536    0.001335   -0.000035
H     0.022293   -2.389897    0.350059    0.051485    0.392753   -0.062237
H     2.654655    0.658533   -0.342692   -0.002220    0.001188   -0.000017
H    -2.103009    1.603108   -0.041542   -1.571317    1.160803   -0.020126
H    -2.239878   -2.059079    0.565606   -0.002911    0.015779   -0.001993
13
* Frequency(36) 3529.9697
C     1.646267    0.274105   -0.194189   -0.000791    0.000051    0.000058
C     1.421034   -1.039362    0.024978    0.001426    0.000984   -0.000266
N     0.133642   -1.534562    0.217847   -0.005651   -0.027473    0.004487
C    -0.925134   -0.711020    0.195233   -0.001062    0.002396   -0.000298
N    -0.694918    0.561795   -0.023947    0.116070   -0.088009    0.001840
C     0.535883    1.216473   -0.237865   -0.001439    0.001332   -0.000029
O    -2.145929   -1.110563    0.377249    0.000679   -0.000775    0.000099
O     0.590067    2.410919   -0.425883    0.000227   -0.000730    0.000081
H     2.206137   -1.794381    0.067941   -0.001536    0.001335   -0.000035
H     0.020837   -2.401005    0.351820    0.051485    0.392753   -0.062237
H     2.654718    0.658499   -0.342691   -0.002220    0.001188   -0.000017
H    -2.058566    1.570276   -0.040973   -1.571317    1.160803   -0.020126
H    -2.239795   -2.059525    0.565663   -0.002911    0.015779   -0.001993
13
* Frequency(36) 3529.9697
C     1.646316    0.274102   -0.194192   -0.000791    0.000051    0.000058
C     1.420944   -1.039424    0.024995    0.001426    0.000984   -0.000266
N     0.133998   -1.532831    0.217564   -0.005651   -0.027473    0.004487
C    -0.925068   -0.711171    0.195252   -0.001062    0.002396   -0.000298
N    -0.702233    0.567342   -0.024063    0.116070   -0.088009    0.001840
C     0.535973    1.216389   -0.237863   -0.001439    0.001332   -0.000029
O    -2.145971   -1.110514    0.377243    0.000679   -0.000775    0.000099
O     0.590052    2.410965   -0.425888    0.000227   -0.000730    0.000081
H     2.206234   -1.794465    0.067943   -0.001536    0.001335   -0.000035
H     0.017593   -2.425756    0.355742    0.051485    0.392753   -0.062237
H     2.654858    0.658424   -0.342690   -0.002220    0.001188   -0.000017
H    -1.959546    1.497126   -0.039705   -1.571317    1.160803   -0.020126
H    -2.239612   -2.060520    0.565788   -0.002911    0.015779   -0.001993
13
* Frequency(36) 3529.9697
C     1.646388    0.274097   -0.194198   -0.000791    0.000051    0.000058
C     1.420814   -1.039513    0.025019    0.001426    0.000984   -0.000266
N     0.134512   -1.530333    0.217156   -0.005651   -0.027473    0.004487
C    -0.924971   -0.711388    0.195279   -0.001062    0.002396   -0.000298
N    -0.712786    0.575343   -0.024230    0.116070   -0.088009    0.001840
C     0.536104    1.216268   -0.237861   -0.001439    0.001332   -0.000029
O    -2.146033   -1.110444    0.377234    0.000679   -0.000775    0.000099
O     0.590032    2.411031   -0.425896    0.000227   -0.000730    0.000081
H     2.206373   -1.794587    0.067946   -0.001536    0.001335   -0.000035
H     0.012912   -2.461465    0.361400    0.051485    0.392753   -0.062237
H     2.655060    0.658316   -0.342689   -0.002220    0.001188   -0.000017
H    -1.816679    1.391583   -0.037875   -1.571317    1.160803   -0.020126
H    -2.239347   -2.061954    0.565969   -0.002911    0.015779   -0.001993
13
* Frequency(36) 3529.9697
C     1.646475    0.274092   -0.194204   -0.000791    0.000051    0.000058
C     1.420659   -1.039620    0.025048    0.001426    0.000984   -0.000266
N     0.135127   -1.527339    0.216667   -0.005651   -0.027473    0.004487
C    -0.924855   -0.711649    0.195312   -0.001062    0.002396   -0.000298
N    -0.725435    0.584934   -0.024430    0.116070   -0.088009    0.001840
C     0.536261    1.216122   -0.237858   -0.001439    0.001332   -0.000029
O    -2.146107   -1.110359    0.377223    0.000679   -0.000775    0.000099
O     0.590007    2.411111   -0.425905    0.000227   -0.000730    0.000081
H     2.206541   -1.794732    0.067950   -0.001536    0.001335   -0.000035
H     0.007301   -2.504265    0.368183    0.051485    0.392753   -0.062237
H     2.655302    0.658187   -0.342687   -0.002220    0.001188   -0.000017
H    -1.645448    1.265087   -0.035682   -1.571317    1.160803   -0.020126
H    -2.239030   -2.063674    0.566187   -0.002911    0.015779   -0.001993
13
* Frequency(36) 3529.9697
C     1.646566    0.274086   -0.194210   -0.000791    0.000051    0.000058
C     1.420495   -1.039734    0.025079    0.001426    0.000984   -0.000266
N     0.135779   -1.524174    0.216150   -0.005651   -0.027473    0.004487
C    -0.924733   -0.711926    0.195346   -0.001062    0.002396   -0.000298
N    -0.738808    0.595074   -0.024642    0.116070   -0.088009    0.001840
C     0.536427    1.215969   -0.237854   -0.001439    0.001332   -0.000029
O    -2.146185   -1.110270    0.377212    0.000679   -0.000775    0.000099
O     0.589981    2.411195   -0.425914    0.000227   -0.000730    0.000081
H     2.206718   -1.794886    0.067954   -0.001536    0.001335   -0.000035
H     0.001369   -2.549516    0.375353    0.051485    0.392753   -0.062237
H     2.655558    0.658050   -0.342685   -0.002220    0.001188   -0.000017
H    -1.464406    1.131343   -0.033363   -1.571317    1.160803   -0.020126
H    -2.238695   -2.065492    0.566416   -0.002911    0.015779   -0.001993
13
* Frequency(36) 3529.9697
C     1.646652    0.274080   -0.194217   -0.000791    0.000051    0.000058
C     1.420339   -1.039841    0.025108    0.001426    0.000984   -0.000266
N     0.136394   -1.521180    0.215661   -0.005651   -0.027473    0.004487
C    -0.924617   -0.712187    0.195378   -0.001062    0.002396   -0.000298
N    -0.751456    0.604665   -0.024843    0.116070   -0.088009    0.001840
C     0.536584    1.215824   -0.237851   -0.001439    0.001332   -0.000029
O    -2.146259   -1.110185    0.377201    0.000679   -0.000775    0.000099
O     0.589956    2.411274   -0.425923    0.000227   -0.000730    0.000081
H     2.206885   -1.795031    0.067958   -0.001536    0.001335   -0.000035
H    -0.004241   -2.592316    0.382136    0.051485    0.392753   -0.062237
H     2.655800    0.657921   -0.342683   -0.002220    0.001188   -0.000017
H    -1.293175    1.004847   -0.031170   -1.571317    1.160803   -0.020126
H    -2.238378   -2.067211    0.566633   -0.002911    0.015779   -0.001993
13
* Frequency(36) 3529.9697
C     1.646724    0.274076   -0.194222   -0.000791    0.000051    0.000058
C     1.420210   -1.039931    0.025132    0.001426    0.000984   -0.000266
N     0.136908   -1.518682    0.215253   -0.005651   -0.027473    0.004487
C    -0.924521   -0.712404    0.195405   -0.001062    0.002396   -0.000298
N    -0.762009    0.612667   -0.025010    0.116070   -0.088009    0.001840
C     0.536715    1.215703   -0.237849   -0.001439    0.001332   -0.000029
O    -2.146321   -1.110115    0.377192    0.000679   -0.000775    0.000099
O     0.589935    2.411341   -0.425930    0.000227   -0.000730    0.000081
H     2.207025   -1.795153    0.067961   -0.001536    0.001335   -0.000035
H    -0.008922   -2.628026    0.387794    0.051485    0.392753   -0.062237
H     2.656002    0.657813   -0.342682   -0.002220    0.001188   -0.000017
H    -1.150308    0.899304   -0.029340   -1.571317    1.160803   -0.020126
H    -2.238113   -2.068646    0.566815   -0.002911    0.015779   -0.001993
13
* Frequency(36) 3529.9697
C     1.646774    0.274072   -0.194226   -0.000791    0.000051    0.000058
C     1.420120   -1.039993    0.025149    0.001426    0.000984   -0.000266
N     0.137264   -1.516951    0.214971   -0.005651   -0.027473    0.004487
C    -0.924454   -0.712555    0.195424   -0.001062    0.002396   -0.000298
N    -0.769324    0.618213   -0.025126    0.116070   -0.088009    0.001840
C     0.536805    1.215619   -0.237847   -0.001439    0.001332   -0.000029
O    -2.146364   -1.110066    0.377186    0.000679   -0.000775    0.000099
O     0.589921    2.411387   -0.425935    0.000227   -0.000730    0.000081
H     2.207122   -1.795237    0.067963   -0.001536    0.001335   -0.000035
H    -0.012167   -2.652776    0.391716    0.051485    0.392753   -0.062237
H     2.656142    0.657738   -0.342681   -0.002220    0.001188   -0.000017
H    -1.051287    0.826154   -0.028072   -1.571317    1.160803   -0.020126
H    -2.237930   -2.069640    0.566940   -0.002911    0.015779   -0.001993
13
* Frequency(36) 3529.9697
C     1.646796    0.274071   -0.194227   -0.000791    0.000051    0.000058
C     1.420079   -1.040021    0.025156    0.001426    0.000984   -0.000266
N     0.137424   -1.516174    0.214844   -0.005651   -0.027473    0.004487
C    -0.924424   -0.712623    0.195433   -0.001062    0.002396   -0.000298
N    -0.772607    0.620702   -0.025178    0.116070   -0.088009    0.001840
C     0.536846    1.215581   -0.237846   -0.001439    0.001332   -0.000029
O    -2.146383   -1.110044    0.377183    0.000679   -0.000775    0.000099
O     0.589915    2.411408   -0.425938    0.000227   -0.000730    0.000081
H     2.207165   -1.795275    0.067964   -0.001536    0.001335   -0.000035
H    -0.013623   -2.663885    0.393477    0.051485    0.392753   -0.062237
H     2.656204    0.657704   -0.342680   -0.002220    0.001188   -0.000017
H    -1.006844    0.793322   -0.027502   -1.571317    1.160803   -0.020126
H    -2.237847   -2.070086    0.566997   -0.002911    0.015779   -0.001993
13
* Frequency(36) 3529.9697
C     1.646788    0.274071   -0.194227   -0.000791    0.000051    0.000058
C     1.420093   -1.040011    0.025154    0.001426    0.000984   -0.000266
N     0.137370   -1.516435    0.214887   -0.005651   -0.027473    0.004487
C    -0.924434   -0.712600    0.195430   -0.001062    0.002396   -0.000298
N    -0.771502    0.619865   -0.025161    0.116070   -0.088009    0.001840
C     0.536832    1.215594   -0.237846   -0.001439    0.001332   -0.000029
O    -2.146376   -1.110052    0.377184    0.000679   -0.000775    0.000099
O     0.589917    2.411401   -0.425937    0.000227   -0.000730    0.000081
H     2.207150   -1.795262    0.067964   -0.001536    0.001335   -0.000035
H    -0.013133   -2.660148    0.392884    0.051485    0.392753   -0.062237
H     2.656183    0.657716   -0.342680   -0.002220    0.001188   -0.000017
H    -1.021795    0.804366   -0.027694   -1.571317    1.160803   -0.020126
H    -2.237875   -2.069936    0.566978   -0.002911    0.015779   -0.001993
13
* Frequency(36) 3529.9697
C     1.646752    0.274074   -0.194224   -0.000791    0.000051    0.000058
C     1.420159   -1.039966    0.025141    0.001426    0.000984   -0.000266
N     0.137109   -1.517707    0.215094   -0.005651   -0.027473    0.004487
C    -0.924483   -0.712490    0.195416   -0.001062    0.002396   -0.000298
N    -0.766130    0.615792   -0.025076    0.116070   -0.088009    0.001840
C     0.536766    1.215655   -0.237848   -0.001439    0.001332   -0.000029
O    -2.146345   -1.110087    0.377188    0.000679   -0.000775    0.000099
O     0.589927    2.411367   -0.425933    0.000227   -0.000730    0.000081
H     2.207079   -1.795200    0.067962   -0.001536    0.001335   -0.000035
H    -0.010750   -2.641970    0.390004    0.051485    0.392753   -0.062237
H     2.656080    0.657771   -0.342681   -0.002220    0.001188   -0.000017
H    -1.094518    0.858090   -0.028625   -1.571317    1.160803   -0.020126
H    -2.238010   -2.069206    0.566885   -0.002911    0.015779   -0.001993
13
* Frequency(36) 3529.9697
C     1.646690    0.274078   -0.194220   -0.000791    0.000051    0.000058
C     1.420270   -1.039889    0.025121    0.001426    0.000984   -0.000266
N     0.136668   -1.519851    0.215444   -0.005651   -0.027473    0.004487
C    -0.924566   -0.712303    0.195393   -0.001062    0.002396   -0.000298
N    -0.757073    0.608924   -0.024932    0.116070   -0.088009    0.001840
C     0.536653    1.215759   -0.237850   -0.001439    0.001332   -0.000029
O    -2.146292   -1.110148    0.377196    0.000679   -0.000775    0.000099
O     0.589945    2.411310   -0.425927    0.000227   -0.000730    0.000081
H     2.206959   -1.795096    0.067959   -0.001536    0.001335   -0.000035
H    -0.006733   -2.611322    0.385147    0.051485    0.392753   -0.062237
H     2.655907    0.657863   -0.342682   -0.002220    0.001188   -0.000017
H    -1.217134    0.948672   -0.030196   -1.571317    1.160803   -0.020126
H    -2.238237   -2.067975    0.566730   -0.002911    0.015779   -0.001993
13
* Frequency(36) 3529.9697
C     1.646610    0.274083   -0.194214   -0.000791    0.000051    0.000058
C     1.420415   -1.039789    0.025094    0.001426    0.000984   -0.000266
N     0.136095   -1.522635    0.215899   -0.005651   -0.027473    0.004487
C    -0.924673   -0.712060    0.195363   -0.001062    0.002396   -0.000298
N    -0.745312    0.600006   -0.024746    0.116070   -0.088009    0.001840
C     0.536508    1.215894   -0.237853   -0.001439    0.001332   -0.000029
O    -2.146223   -1.110227    0.377206    0.000679   -0.000775    0.000099
O     0.589968    2.411236   -0.425919    0.000227   -0.000730    0.000081
H     2.206804   -1.794961    0.067956   -0.001536    0.001335   -0.000035
H    -0.001516   -2.571525    0.378841    0.051485    0.392753   -0.062237
H     2.655682    0.657984   -0.342684   -0.002220    0.001188   -0.000017
H    -1.376355    1.066296   -0.032235   -1.571317    1.160803   -0.020126
H    -2.238532   -2.066376    0.566528   -0.002911    0.015779   -0.001993
13
* Frequency(36) 3529.9697
C     1.646520    0.274089   -0.194207   -0.000791    0.000051    0.000058
C     1.420577   -1.039677    0.025063    0.001426    0.000984   -0.000266
N     0.135453   -1.525757    0.216409   -0.005651   -0.027473    0.004487
C    -0.924794   -0.711788    0.195329   -0.001062    0.002396   -0.000298
N    -0.732121    0.590004   -0.024536    0.116070   -0.088009    0.001840
C     0.536344    1.216046   -0.237856   -0.001439    0.001332   -0.000029
O    -2.146146   -1.110315    0.377217    0.000679   -0.000775    0.000099
O     0.589994    2.411153   -0.425909    0.000227   -0.000730    0.000081
H     2.206629   -1.794809    0.067952   -0.001536    0.001335   -0.000035
H     0.004335   -2.526891    0.371768    0.051485    0.392753   -0.062237
H     2.655430    0.658119   -0.342686   -0.002220    0.001188   -0.000017
H    -1.554927    1.198215   -0.034522   -1.571317    1.160803   -0.020126
H    -2.238862   -2.064583    0.566301   -0.002911    0.015779   -0.001993
