13
* (null), Energy   -1000.0000000
C     1.646520    0.274089   -0.194207    0.207979    0.121802   -0.035647
C     1.420577   -1.039677    0.025063    0.136389   -0.097444    0.002340
N     0.135453   -1.525757    0.216409   -0.308670   -0.005065    0.029332
C    -0.924794   -0.711788    0.195329    0.001174   -0.044643    0.006933
N    -0.732121    0.590004   -0.024536    0.132561   -0.103897    0.003224
C     0.536344    1.216046   -0.237856   -0.218738    0.021654    0.015356
O    -2.146146   -1.110315    0.377217    0.102277   -0.002253   -0.010338
O     0.589994    2.411153   -0.425909    0.045554    0.070538   -0.014639
H     2.206629   -1.794809    0.067952   -0.516432   -0.800304    0.165795
H     0.004335   -2.526891    0.371768   -0.669897    0.049001    0.055944
H     2.655430    0.658119   -0.342686   -0.290192    1.453383   -0.197096
H    -1.554927    1.198215   -0.034522    0.004989   -0.297997    0.050205
H    -2.238862   -2.064583    0.566301    0.061378    0.009888    0.000487
13
* Frequency(23) 1090.2189
C     1.670156    0.287931   -0.198258    0.207979    0.121802   -0.035647
C     1.436077   -1.050751    0.025329    0.136389   -0.097444    0.002340
N     0.100374   -1.526332    0.219742   -0.308670   -0.005065    0.029332
C    -0.924661   -0.716861    0.196117    0.001174   -0.044643    0.006933
N    -0.717056    0.578197   -0.024170    0.132561   -0.103897    0.003224
C     0.511486    1.218506   -0.236111   -0.218738    0.021654    0.015356
O    -2.134523   -1.110571    0.376043    0.102277   -0.002253   -0.010338
O     0.595171    2.419169   -0.427573    0.045554    0.070538   -0.014639
H     2.147939   -1.885759    0.086794   -0.516432   -0.800304    0.165795
H    -0.071795   -2.521322    0.378126   -0.669897    0.049001    0.055944
H     2.622451    0.823288   -0.365085   -0.290192    1.453383   -0.197096
H    -1.554360    1.164349   -0.028817    0.004989   -0.297997    0.050205
H    -2.231887   -2.063459    0.566357    0.061378    0.009888    0.000487
13
* Frequency(23) 1090.2189
C     1.691230    0.300273   -0.201870    0.207979    0.121802   -0.035647
C     1.449897   -1.060625    0.025567    0.136389   -0.097444    0.002340
N     0.069097   -1.526846    0.222714   -0.308670   -0.005065    0.029332
C    -0.924542   -0.721385    0.196819    0.001174   -0.044643    0.006933
N    -0.703624    0.567669   -0.023843    0.132561   -0.103897    0.003224
C     0.489321    1.220701   -0.234555   -0.218738    0.021654    0.015356
O    -2.124159   -1.110799    0.374995    0.102277   -0.002253   -0.010338
O     0.599787    2.426317   -0.429056    0.045554    0.070538   -0.014639
H     2.095610   -1.966854    0.103594   -0.516432   -0.800304    0.165795
H    -0.139675   -2.516357    0.383795   -0.669897    0.049001    0.055944
H     2.593046    0.970559   -0.385057   -0.290192    1.453383   -0.197096
H    -1.553854    1.134153   -0.023729    0.004989   -0.297997    0.050205
H    -2.225668   -2.062457    0.566406    0.061378    0.009888    0.000487
13
* Frequency(23) 1090.2189
C     1.707460    0.309778   -0.204652    0.207979    0.121802   -0.035647
C     1.460540   -1.068229    0.025749    0.136389   -0.097444    0.002340
N     0.045010   -1.527241    0.225003   -0.308670   -0.005065    0.029332
C    -0.924450   -0.724868    0.197360    0.001174   -0.044643    0.006933
N    -0.693280    0.559562   -0.023592    0.132561   -0.103897    0.003224
C     0.472252    1.222390   -0.233357   -0.218738    0.021654    0.015356
O    -2.116178   -1.110975    0.374188    0.102277   -0.002253   -0.010338
O     0.603341    2.431821   -0.430199    0.045554    0.070538   -0.014639
H     2.055310   -2.029305    0.116531   -0.516432   -0.800304    0.165795
H    -0.191950   -2.512533    0.388160   -0.669897    0.049001    0.055944
H     2.570401    1.083972   -0.400437   -0.290192    1.453383   -0.197096
H    -1.553465    1.110899   -0.019812    0.004989   -0.297997    0.050205
H    -2.220878   -2.061685    0.566444    0.061378    0.009888    0.000487
13
* Frequency(23) 1090.2189
C     1.717085    0.315415   -0.206302    0.207979    0.121802   -0.035647
C     1.466852   -1.072739    0.025858    0.136389   -0.097444    0.002340
N     0.030724   -1.527475    0.226361   -0.308670   -0.005065    0.029332
C    -0.924396   -0.726934    0.197681    0.001174   -0.044643    0.006933
N    -0.687144    0.554753   -0.023442    0.132561   -0.103897    0.003224
C     0.462128    1.223393   -0.232646   -0.218738    0.021654    0.015356
O    -2.111445   -1.111079    0.373710    0.102277   -0.002253   -0.010338
O     0.605450    2.435086   -0.430876    0.045554    0.070538   -0.014639
H     2.031409   -2.066344    0.124205   -0.516432   -0.800304    0.165795
H    -0.222954   -2.510265    0.390749   -0.669897    0.049001    0.055944
H     2.556970    1.151237   -0.409559   -0.290192    1.453383   -0.197096
H    -1.553234    1.097107   -0.017488    0.004989   -0.297997    0.050205
H    -2.218037   -2.061228    0.566467    0.061378    0.009888    0.000487
13
* Frequency(23) 1090.2189
C     1.719064    0.316574   -0.206641    0.207979    0.121802   -0.035647
C     1.468150   -1.073666    0.025880    0.136389   -0.097444    0.002340
N     0.027787   -1.527523    0.226640   -0.308670   -0.005065    0.029332
C    -0.924385   -0.727359    0.197747    0.001174   -0.044643    0.006933
N    -0.685883    0.553765   -0.023412    0.132561   -0.103897    0.003224
C     0.460047    1.223599   -0.232500   -0.218738    0.021654    0.015356
O    -2.110471   -1.111100    0.373612    0.102277   -0.002253   -0.010338
O     0.605883    2.435757   -0.431015    0.045554    0.070538   -0.014639
H     2.026495   -2.073959    0.125782   -0.516432   -0.800304    0.165795
H    -0.229328   -2.509799    0.391282   -0.669897    0.049001    0.055944
H     2.554209    1.165065   -0.411434   -0.290192    1.453383   -0.197096
H    -1.553187    1.094272   -0.017010    0.004989   -0.297997    0.050205
H    -2.217453   -2.061134    0.566471    0.061378    0.009888    0.000487
13
* Frequency(23) 1090.2189
C     1.713182    0.313129   -0.205633    0.207979    0.121802   -0.035647
C     1.464292   -1.070910    0.025814    0.136389   -0.097444    0.002340
N     0.036518   -1.527380    0.225810   -0.308670   -0.005065    0.029332
C    -0.924418   -0.726096    0.197551    0.001174   -0.044643    0.006933
N    -0.689633    0.556703   -0.023503    0.132561   -0.103897    0.003224
C     0.466234    1.222986   -0.232934   -0.218738    0.021654    0.015356
O    -2.113364   -1.111037    0.373904    0.102277   -0.002253   -0.010338
O     0.604595    2.433762   -0.430601    0.045554    0.070538   -0.014639
H     2.041102   -2.051323    0.121093   -0.516432   -0.800304    0.165795
H    -0.210381   -2.511185    0.389699   -0.669897    0.049001    0.055944
H     2.562417    1.123958   -0.405859   -0.290192    1.453383   -0.197096
H    -1.553328    1.102701   -0.018430    0.004989   -0.297997    0.050205
H    -2.219189   -2.061413    0.566458    0.061378    0.009888    0.000487
13
* Frequency(23) 1090.2189
C     1.700075    0.305453   -0.203386    0.207979    0.121802   -0.035647
C     1.455697   -1.064769    0.025666    0.136389   -0.097444    0.002340
N     0.055969   -1.527061    0.223962   -0.308670   -0.005065    0.029332
C    -0.924492   -0.723283    0.197114    0.001174   -0.044643    0.006933
N    -0.697986    0.563250   -0.023706    0.132561   -0.103897    0.003224
C     0.480018    1.221622   -0.233902   -0.218738    0.021654    0.015356
O    -2.119809   -1.110895    0.374555    0.102277   -0.002253   -0.010338
O     0.601724    2.429317   -0.429679    0.045554    0.070538   -0.014639
H     2.073646   -2.000890    0.110645   -0.516432   -0.800304    0.165795
H    -0.168165   -2.514273    0.386174   -0.669897    0.049001    0.055944
H     2.580704    1.032370   -0.393439   -0.290192    1.453383   -0.197096
H    -1.553642    1.121480   -0.021594    0.004989   -0.297997    0.050205
H    -2.223057   -2.062036    0.566427    0.061378    0.009888    0.000487
13
* Frequency(23) 1090.2189
C     1.681166    0.294379   -0.200145    0.207979    0.121802   -0.035647
C     1.443297   -1.055910    0.025453    0.136389   -0.097444    0.002340
N     0.084034   -1.526600    0.221295   -0.308670   -0.005065    0.029332
C    -0.924598   -0.719224    0.196484    0.001174   -0.044643    0.006933
N    -0.710039    0.572697   -0.023999    0.132561   -0.103897    0.003224
C     0.499906    1.219653   -0.235298   -0.218738    0.021654    0.015356
O    -2.129109   -1.110690    0.375495    0.102277   -0.002253   -0.010338
O     0.597582    2.422903   -0.428348    0.045554    0.070538   -0.014639
H     2.120601   -1.928125    0.095570   -0.516432   -0.800304    0.165795
H    -0.107257   -2.518728    0.381087   -0.669897    0.049001    0.055944
H     2.607089    0.900225   -0.375519   -0.290192    1.453383   -0.197096
H    -1.554096    1.148574   -0.026159    0.004989   -0.297997    0.050205
H    -2.228638   -2.062935    0.566383    0.061378    0.009888    0.000487
13
* Frequency(23) 1090.2189
C     1.658501    0.281106   -0.196261    0.207979    0.121802   -0.035647
C     1.428434   -1.045291    0.025198    0.136389   -0.097444    0.002340
N     0.117671   -1.526048    0.218099   -0.308670   -0.005065    0.029332
C    -0.924726   -0.714359    0.195728    0.001174   -0.044643    0.006933
N    -0.724485    0.584019   -0.024351    0.132561   -0.103897    0.003224
C     0.523743    1.217293   -0.236971   -0.218738    0.021654    0.015356
O    -2.140254   -1.110444    0.376622    0.102277   -0.002253   -0.010338
O     0.592618    2.415216   -0.426753    0.045554    0.070538   -0.014639
H     2.176879   -1.840913    0.077503   -0.516432   -0.800304    0.165795
H    -0.034256   -2.524068    0.374991   -0.669897    0.049001    0.055944
H     2.638712    0.741845   -0.354040   -0.290192    1.453383   -0.197096
H    -1.554640    1.181048   -0.031630    0.004989   -0.297997    0.050205
H    -2.235327   -2.064013    0.566330    0.061378    0.009888    0.000487
13
* Frequency(23) 1090.2189
C     1.634539    0.267072   -0.192154    0.207979    0.121802   -0.035647
C     1.412720   -1.034064    0.024929    0.136389   -0.097444    0.002340
N     0.153235   -1.525465    0.214719   -0.308670   -0.005065    0.029332
C    -0.924862   -0.709216    0.194929    0.001174   -0.044643    0.006933
N    -0.739758    0.595990   -0.024722    0.132561   -0.103897    0.003224
C     0.548945    1.214798   -0.238741   -0.218738    0.021654    0.015356
O    -2.152038   -1.110185    0.377813    0.102277   -0.002253   -0.010338
O     0.587370    2.407089   -0.425066    0.045554    0.070538   -0.014639
H     2.236380   -1.748705    0.058401   -0.516432   -0.800304    0.165795
H     0.042927   -2.529713    0.368545   -0.669897    0.049001    0.055944
H     2.672147    0.574392   -0.331332   -0.290192    1.453383   -0.197096
H    -1.555214    1.215382   -0.037415    0.004989   -0.297997    0.050205
H    -2.242398   -2.065152    0.566273    0.061378    0.009888    0.000487
13
* Frequency(23) 1090.2189
C     1.611875    0.253799   -0.188269    0.207979    0.121802   -0.035647
C     1.397857   -1.023445    0.024674    0.136389   -0.097444    0.002340
N     0.186872   -1.524913    0.211523   -0.308670   -0.005065    0.029332
C    -0.924990   -0.704351    0.194174    0.001174   -0.044643    0.006933
N    -0.754203    0.607312   -0.025074    0.132561   -0.103897    0.003224
C     0.572782    1.212439   -0.240414   -0.218738    0.021654    0.015356
O    -2.163184   -1.109939    0.378940    0.102277   -0.002253   -0.010338
O     0.582405    2.399402   -0.423471    0.045554    0.070538   -0.014639
H     2.292657   -1.661493    0.040333   -0.516432   -0.800304    0.165795
H     0.115928   -2.535053    0.362449   -0.669897    0.049001    0.055944
H     2.703771    0.416012   -0.309853   -0.290192    1.453383   -0.197096
H    -1.555758    1.247856   -0.042886    0.004989   -0.297997    0.050205
H    -2.249087   -2.066230    0.566220    0.061378    0.009888    0.000487
13
* Frequency(23) 1090.2189
C     1.592965    0.242724   -0.185028    0.207979    0.121802   -0.035647
C     1.385456   -1.014585    0.024461    0.136389   -0.097444    0.002340
N     0.214937   -1.524452    0.208856   -0.308670   -0.005065    0.029332
C    -0.925096   -0.700292    0.193544    0.001174   -0.044643    0.006933
N    -0.766256    0.616758   -0.025367    0.132561   -0.103897    0.003224
C     0.592670    1.210470   -0.241810   -0.218738    0.021654    0.015356
O    -2.172483   -1.109735    0.379879    0.102277   -0.002253   -0.010338
O     0.578264    2.392989   -0.422140    0.045554    0.070538   -0.014639
H     2.339612   -1.588728    0.025259   -0.516432   -0.800304    0.165795
H     0.176836   -2.539508    0.357362   -0.669897    0.049001    0.055944
H     2.730155    0.283868   -0.291933   -0.290192    1.453383   -0.197096
H    -1.556212    1.274950   -0.047450    0.004989   -0.297997    0.050205
H    -2.254668   -2.067129    0.566176    0.061378    0.009888    0.000487
13
* Frequency(23) 1090.2189
C     1.579859    0.235049   -0.182781    0.207979    0.121802   -0.035647
C     1.376861   -1.008444    0.024313    0.136389   -0.097444    0.002340
N     0.234388   -1.524133    0.207007   -0.308670   -0.005065    0.029332
C    -0.925170   -0.697479    0.193107    0.001174   -0.044643    0.006933
N    -0.774610    0.623305   -0.025570    0.132561   -0.103897    0.003224
C     0.606454    1.209105   -0.242778   -0.218738    0.021654    0.015356
O    -2.178928   -1.109593    0.380531    0.102277   -0.002253   -0.010338
O     0.575393    2.388544   -0.421217    0.045554    0.070538   -0.014639
H     2.372157   -1.538295    0.014811   -0.516432   -0.800304    0.165795
H     0.219051   -2.542596    0.353837   -0.669897    0.049001    0.055944
H     2.748443    0.192279   -0.279513   -0.290192    1.453383   -0.197096
H    -1.556526    1.293729   -0.050614    0.004989   -0.297997    0.050205
H    -2.258536   -2.067752    0.566145    0.061378    0.009888    0.000487
13
* Frequency(23) 1090.2189
C     1.573976    0.231604   -0.181773    0.207979    0.121802   -0.035647
C     1.373004   -1.005688    0.024247    0.136389   -0.097444    0.002340
N     0.243118   -1.523990    0.206178   -0.308670   -0.005065    0.029332
C    -0.925204   -0.696216    0.192911    0.001174   -0.044643    0.006933
N    -0.778359    0.626244   -0.025661    0.132561   -0.103897    0.003224
C     0.612641    1.208493   -0.243212   -0.218738    0.021654    0.015356
O    -2.181821   -1.109529    0.380823    0.102277   -0.002253   -0.010338
O     0.574104    2.386549   -0.420803    0.045554    0.070538   -0.014639
H     2.386763   -1.515659    0.010122   -0.516432   -0.800304    0.165795
H     0.237998   -2.543982    0.352254   -0.669897    0.049001    0.055944
H     2.756650    0.151172   -0.273938   -0.290192    1.453383   -0.197096
H    -1.556667    1.302158   -0.052034    0.004989   -0.297997    0.050205
H    -2.260272   -2.068032    0.566131    0.061378    0.009888    0.000487
13
* Frequency(23) 1090.2189
C     1.575955    0.232763   -0.182112    0.207979    0.121802   -0.035647
C     1.374301   -1.006615    0.024269    0.136389   -0.097444    0.002340
N     0.240182   -1.524038    0.206457   -0.308670   -0.005065    0.029332
C    -0.925192   -0.696641    0.192977    0.001174   -0.044643    0.006933
N    -0.777098    0.625255   -0.025630    0.132561   -0.103897    0.003224
C     0.610559    1.208699   -0.243066   -0.218738    0.021654    0.015356
O    -2.180848   -1.109550    0.380725    0.102277   -0.002253   -0.010338
O     0.574538    2.387220   -0.420942    0.045554    0.070538   -0.014639
H     2.381850   -1.523274    0.011699   -0.516432   -0.800304    0.165795
H     0.231625   -2.543516    0.352787   -0.669897    0.049001    0.055944
H     2.753889    0.165000   -0.275813   -0.290192    1.453383   -0.197096
H    -1.556620    1.299323   -0.051557    0.004989   -0.297997    0.050205
H    -2.259688   -2.067938    0.566136    0.061378    0.009888    0.000487
13
* Frequency(23) 1090.2189
C     1.585581    0.238400   -0.183762    0.207979    0.121802   -0.035647
C     1.380614   -1.011125    0.024378    0.136389   -0.097444    0.002340
N     0.225896   -1.524273    0.207814   -0.308670   -0.005065    0.029332
C    -0.925138   -0.698707    0.193297    0.001174   -0.044643    0.006933
N    -0.770963    0.620447   -0.025481    0.132561   -0.103897    0.003224
C     0.600436    1.209701   -0.242355   -0.218738    0.021654    0.015356
O    -2.176114   -1.109655    0.380246    0.102277   -0.002253   -0.010338
O     0.576646    2.390485   -0.421620    0.045554    0.070538   -0.014639
H     2.357948   -1.560313    0.019372   -0.516432   -0.800304    0.165795
H     0.200621   -2.541248    0.355376   -0.669897    0.049001    0.055944
H     2.740459    0.232265   -0.284935   -0.290192    1.453383   -0.197096
H    -1.556389    1.285531   -0.049233    0.004989   -0.297997    0.050205
H    -2.256847   -2.067480    0.566159    0.061378    0.009888    0.000487
13
* Frequency(23) 1090.2189
C     1.601810    0.247905   -0.186544    0.207979    0.121802   -0.035647
C     1.391257   -1.018729    0.024560    0.136389   -0.097444    0.002340
N     0.201809   -1.524668    0.210103   -0.308670   -0.005065    0.029332
C    -0.925046   -0.702190    0.193838    0.001174   -0.044643    0.006933
N    -0.760618    0.612339   -0.025230    0.132561   -0.103897    0.003224
C     0.583367    1.211391   -0.241157   -0.218738    0.021654    0.015356
O    -2.168133   -1.109830    0.379440    0.102277   -0.002253   -0.010338
O     0.580201    2.395989   -0.422762    0.045554    0.070538   -0.014639
H     2.317649   -1.622764    0.032310   -0.516432   -0.800304    0.165795
H     0.148346   -2.537425    0.359741   -0.669897    0.049001    0.055944
H     2.717814    0.345678   -0.300315   -0.290192    1.453383   -0.197096
H    -1.556000    1.262277   -0.045315    0.004989   -0.297997    0.050205
H    -2.252057   -2.066708    0.566197    0.061378    0.009888    0.000487
13
* Frequency(23) 1090.2189
C     1.622884    0.260247   -0.190156    0.207979    0.121802   -0.035647
C     1.405077   -1.028603    0.024798    0.136389   -0.097444    0.002340
N     0.170532   -1.525181    0.213076   -0.308670   -0.005065    0.029332
C    -0.924927   -0.706714    0.194541    0.001174   -0.044643    0.006933
N    -0.747186    0.601812   -0.024903    0.132561   -0.103897    0.003224
C     0.561202    1.213585   -0.239601   -0.218738    0.021654    0.015356
O    -2.157769   -1.110059    0.378392    0.102277   -0.002253   -0.010338
O     0.584817    2.403136   -0.424246    0.045554    0.070538   -0.014639
H     2.265319   -1.703859    0.049110   -0.516432   -0.800304    0.165795
H     0.080466   -2.532459    0.365410   -0.669897    0.049001    0.055944
H     2.688409    0.492949   -0.320287   -0.290192    1.453383   -0.197096
H    -1.555494    1.232081   -0.040228    0.004989   -0.297997    0.050205
H    -2.245838   -2.065706    0.566246    0.061378    0.009888    0.000487
13
* Frequency(23) 1090.2189
C     1.646520    0.274089   -0.194207    0.207979    0.121802   -0.035647
C     1.420577   -1.039677    0.025063    0.136389   -0.097444    0.002340
N     0.135453   -1.525757    0.216409   -0.308670   -0.005065    0.029332
C    -0.924794   -0.711788    0.195329    0.001174   -0.044643    0.006933
N    -0.732121    0.590004   -0.024536    0.132561   -0.103897    0.003224
C     0.536344    1.216046   -0.237856   -0.218738    0.021654    0.015356
O    -2.146146   -1.110315    0.377217    0.102277   -0.002253   -0.010338
O     0.589994    2.411153   -0.425909    0.045554    0.070538   -0.014639
H     2.206629   -1.794809    0.067952   -0.516432   -0.800304    0.165795
H     0.004335   -2.526891    0.371768   -0.669897    0.049001    0.055944
H     2.655430    0.658119   -0.342686   -0.290192    1.453383   -0.197096
H    -1.554927    1.198215   -0.034522    0.004989   -0.297997    0.050205
H    -2.238862   -2.064583    0.566301    0.061378    0.009888    0.000487
