13
* (null), Energy   -1000.0000000
C     1.646520    0.274089   -0.194207    0.229413    0.436276   -0.096200
C     1.420577   -1.039677    0.025063    0.021843    0.493457   -0.072701
N     0.135453   -1.525757    0.216409    0.077678   -0.073707    0.008129
C    -0.924794   -0.711788    0.195329   -0.296539   -0.439278    0.094456
N    -0.732121    0.590004   -0.024536    0.097675   -0.428548    0.053402
C     0.536344    1.216046   -0.237856    0.162109    0.042030   -0.022433
O    -2.146146   -1.110315    0.377217   -0.609452   -0.009682    0.067273
O     0.589994    2.411153   -0.425909    0.367127    0.018034   -0.034788
H     2.206629   -1.794809    0.067952    0.126370    0.608001   -0.095657
H     0.004335   -2.526891    0.371768    0.631133   -0.174978   -0.081778
H     2.655430    0.658119   -0.342686    0.218598    0.474783   -0.105760
H    -1.554927    1.198215   -0.034522    0.116285   -0.415561    0.059674
H    -2.238862   -2.064583    0.566301   -1.074929    0.009543    0.007253
13
* Frequency(13)  570.1489
C     1.672592    0.323669   -0.205140    0.229413    0.436276   -0.096200
C     1.423059   -0.983598    0.016801    0.021843    0.493457   -0.072701
N     0.144281   -1.534133    0.217333    0.077678   -0.073707    0.008129
C    -0.958494   -0.761709    0.206063   -0.296539   -0.439278    0.094456
N    -0.721021    0.541302   -0.018468    0.097675   -0.428548    0.053402
C     0.554767    1.220822   -0.240405    0.162109    0.042030   -0.022433
O    -2.215407   -1.111415    0.384863   -0.609452   -0.009682    0.067273
O     0.631716    2.413202   -0.429863    0.367127    0.018034   -0.034788
H     2.220991   -1.725713    0.057081    0.126370    0.608001   -0.095657
H     0.076060   -2.546776    0.362474    0.631133   -0.174978   -0.081778
H     2.680272    0.712075   -0.354705    0.218598    0.474783   -0.105760
H    -1.541712    1.150989   -0.027741    0.116285   -0.415561    0.059674
H    -2.361023   -2.063498    0.567126   -1.074929    0.009543    0.007253
13
* Frequency(13)  570.1489
C     1.695838    0.367877   -0.214888    0.229413    0.436276   -0.096200
C     1.425272   -0.933597    0.009435    0.021843    0.493457   -0.072701
N     0.152152   -1.541602    0.218156    0.077678   -0.073707    0.008129
C    -0.988542   -0.806221    0.215634   -0.296539   -0.439278    0.094456
N    -0.711123    0.497877   -0.013056    0.097675   -0.428548    0.053402
C     0.571193    1.225081   -0.242678    0.162109    0.042030   -0.022433
O    -2.277163   -1.112396    0.391679   -0.609452   -0.009682    0.067273
O     0.668917    2.415030   -0.433388    0.367127    0.018034   -0.034788
H     2.233796   -1.664104    0.047388    0.126370    0.608001   -0.095657
H     0.140013   -2.564507    0.354188    0.631133   -0.174978   -0.081778
H     2.702423    0.760185   -0.365422    0.218598    0.474783   -0.105760
H    -1.529929    1.108880   -0.021694    0.116285   -0.415561    0.059674
H    -2.469945   -2.062531    0.567861   -1.074929    0.009543    0.007253
13
* Frequency(13)  570.1489
C     1.713740    0.401921   -0.222395    0.229413    0.436276   -0.096200
C     1.426977   -0.895090    0.003761    0.021843    0.493457   -0.072701
N     0.158213   -1.547353    0.218791    0.077678   -0.073707    0.008129
C    -1.011683   -0.840500    0.223005   -0.296539   -0.439278    0.094456
N    -0.703501    0.464436   -0.008889    0.097675   -0.428548    0.053402
C     0.583843    1.228361   -0.244429    0.162109    0.042030   -0.022433
O    -2.324721   -1.113151    0.396929   -0.609452   -0.009682    0.067273
O     0.697565    2.416437   -0.436102    0.367127    0.018034   -0.034788
H     2.243657   -1.616660    0.039924    0.126370    0.608001   -0.095657
H     0.189262   -2.578161    0.347806    0.631133   -0.174978   -0.081778
H     2.719481    0.797234   -0.373674    0.218598    0.474783   -0.105760
H    -1.520855    1.076452   -0.017037    0.116285   -0.415561    0.059674
H    -2.553825   -2.061787    0.568427   -1.074929    0.009543    0.007253
13
* Frequency(13)  570.1489
C     1.724358    0.422113   -0.226847    0.229413    0.436276   -0.096200
C     1.427988   -0.872252    0.000397    0.021843    0.493457   -0.072701
N     0.161808   -1.550765    0.219167    0.077678   -0.073707    0.008129
C    -1.025407   -0.860830    0.227377   -0.296539   -0.439278    0.094456
N    -0.698981    0.444602   -0.006418    0.097675   -0.428548    0.053402
C     0.591346    1.230306   -0.245467    0.162109    0.042030   -0.022433
O    -2.352927   -1.113600    0.400043   -0.609452   -0.009682    0.067273
O     0.714556    2.417271   -0.437712    0.367127    0.018034   -0.034788
H     2.249505   -1.588520    0.035496    0.126370    0.608001   -0.095657
H     0.218472   -2.586259    0.344021    0.631133   -0.174978   -0.081778
H     2.729598    0.819208   -0.378569    0.218598    0.474783   -0.105760
H    -1.515473    1.057219   -0.014275    0.116285   -0.415561    0.059674
H    -2.603575   -2.061345    0.568762   -1.074929    0.009543    0.007253
13
* Frequency(13)  570.1489
C     1.726540    0.426264   -0.227762    0.229413    0.436276   -0.096200
C     1.428195   -0.867557   -0.000295    0.021843    0.493457   -0.072701
N     0.162547   -1.551466    0.219244    0.077678   -0.073707    0.008129
C    -1.028228   -0.865010    0.228275   -0.296539   -0.439278    0.094456
N    -0.698052    0.440525   -0.005910    0.097675   -0.428548    0.053402
C     0.592888    1.230706   -0.245681    0.162109    0.042030   -0.022433
O    -2.358726   -1.113692    0.400683   -0.609452   -0.009682    0.067273
O     0.718049    2.417443   -0.438043    0.367127    0.018034   -0.034788
H     2.250708   -1.582735    0.034586    0.126370    0.608001   -0.095657
H     0.224477   -2.587924    0.343243    0.631133   -0.174978   -0.081778
H     2.731678    0.823725   -0.379576    0.218598    0.474783   -0.105760
H    -1.514366    1.053265   -0.013708    0.116285   -0.415561    0.059674
H    -2.613802   -2.061254    0.568831   -1.074929    0.009543    0.007253
13
* Frequency(13)  570.1489
C     1.720052    0.413924   -0.225041    0.229413    0.436276   -0.096200
C     1.427578   -0.881514    0.001761    0.021843    0.493457   -0.072701
N     0.160350   -1.549381    0.219014    0.077678   -0.073707    0.008129
C    -1.019841   -0.852585    0.225604   -0.296539   -0.439278    0.094456
N    -0.700814    0.452646   -0.007420    0.097675   -0.428548    0.053402
C     0.588303    1.229517   -0.245046    0.162109    0.042030   -0.022433
O    -2.341488   -1.113418    0.398780   -0.609452   -0.009682    0.067273
O     0.707666    2.416933   -0.437060    0.367127    0.018034   -0.034788
H     2.247133   -1.599932    0.037292    0.126370    0.608001   -0.095657
H     0.206626   -2.582975    0.345556    0.631133   -0.174978   -0.081778
H     2.725495    0.810296   -0.376584    0.218598    0.474783   -0.105760
H    -1.517655    1.065019   -0.015395    0.116285   -0.415561    0.059674
H    -2.583399   -2.061524    0.568626   -1.074929    0.009543    0.007253
13
* Frequency(13)  570.1489
C     1.705595    0.386431   -0.218979    0.229413    0.436276   -0.096200
C     1.426201   -0.912610    0.006343    0.021843    0.493457   -0.072701
N     0.155455   -1.544736    0.218502    0.077678   -0.073707    0.008129
C    -1.001154   -0.824903    0.219651   -0.296539   -0.439278    0.094456
N    -0.706969    0.479652   -0.010785    0.097675   -0.428548    0.053402
C     0.578088    1.226869   -0.243632    0.162109    0.042030   -0.022433
O    -2.303082   -1.112808    0.394541   -0.609452   -0.009682    0.067273
O     0.684530    2.415797   -0.434867    0.367127    0.018034   -0.034788
H     2.239170   -1.638247    0.043320    0.126370    0.608001   -0.095657
H     0.166854   -2.571948    0.350710    0.631133   -0.174978   -0.081778
H     2.711720    0.780377   -0.369920    0.218598    0.474783   -0.105760
H    -1.524983    1.091207   -0.019156    0.116285   -0.415561    0.059674
H    -2.515660   -2.062125    0.568169   -1.074929    0.009543    0.007253
13
* Frequency(13)  570.1489
C     1.684736    0.346764   -0.210232    0.229413    0.436276   -0.096200
C     1.424215   -0.957476    0.012953    0.021843    0.493457   -0.072701
N     0.148393   -1.538035    0.217763    0.077678   -0.073707    0.008129
C    -0.974192   -0.784963    0.211063   -0.296539   -0.439278    0.094456
N    -0.715850    0.518616   -0.015641    0.097675   -0.428548    0.053402
C     0.563348    1.223047   -0.241593    0.162109    0.042030   -0.022433
O    -2.247670   -1.111927    0.388424   -0.609452   -0.009682    0.067273
O     0.651150    2.414157   -0.431704    0.367127    0.018034   -0.034788
H     2.227680   -1.693527    0.052017    0.126370    0.608001   -0.095657
H     0.109470   -2.556039    0.358145    0.631133   -0.174978   -0.081778
H     2.691844    0.737209   -0.360304    0.218598    0.474783   -0.105760
H    -1.535556    1.128990   -0.024582    0.116285   -0.415561    0.059674
H    -2.417926   -2.062993    0.567510   -1.074929    0.009543    0.007253
13
* Frequency(13)  570.1489
C     1.659736    0.299222   -0.199749    0.229413    0.436276   -0.096200
C     1.421835   -1.011250    0.020875    0.021843    0.493457   -0.072701
N     0.139928   -1.530003    0.216877    0.077678   -0.073707    0.008129
C    -0.941877   -0.737093    0.200770   -0.296539   -0.439278    0.094456
N    -0.726494    0.565316   -0.021460    0.097675   -0.428548    0.053402
C     0.545683    1.218467   -0.239148    0.162109    0.042030   -0.022433
O    -2.181256   -1.110872    0.381093   -0.609452   -0.009682    0.067273
O     0.611143    2.412192   -0.427913    0.367127    0.018034   -0.034788
H     2.213909   -1.759783    0.062441    0.126370    0.608001   -0.095657
H     0.040694   -2.536971    0.367057    0.631133   -0.174978   -0.081778
H     2.668023    0.685470   -0.348779    0.218598    0.474783   -0.105760
H    -1.548228    1.174275   -0.031085    0.116285   -0.415561    0.059674
H    -2.300787   -2.064033    0.566719   -1.074929    0.009543    0.007253
13
* Frequency(13)  570.1489
C     1.633304    0.248956   -0.188665    0.229413    0.436276   -0.096200
C     1.419318   -1.068104    0.029252    0.021843    0.493457   -0.072701
N     0.130978   -1.521511    0.215941    0.077678   -0.073707    0.008129
C    -0.907711   -0.686482    0.189887   -0.296539   -0.439278    0.094456
N    -0.737748    0.614692   -0.027613    0.097675   -0.428548    0.053402
C     0.527005    1.213624   -0.236564    0.162109    0.042030   -0.022433
O    -2.111037   -1.109757    0.373342   -0.609452   -0.009682    0.067273
O     0.568844    2.410114   -0.423905    0.367127    0.018034   -0.034788
H     2.199349   -1.829835    0.073462    0.126370    0.608001   -0.095657
H    -0.032023   -2.516810    0.376479    0.631133   -0.174978   -0.081778
H     2.642837    0.630767   -0.336593    0.218598    0.474783   -0.105760
H    -1.561626    1.222155   -0.037960    0.116285   -0.415561    0.059674
H    -2.176938   -2.065132    0.565884   -1.074929    0.009543    0.007253
13
* Frequency(13)  570.1489
C     1.608304    0.201413   -0.178182    0.229413    0.436276   -0.096200
C     1.416938   -1.121878    0.037174    0.021843    0.493457   -0.072701
N     0.122513   -1.513478    0.215055    0.077678   -0.073707    0.008129
C    -0.875396   -0.638612    0.179594   -0.296539   -0.439278    0.094456
N    -0.748392    0.661392   -0.033432    0.097675   -0.428548    0.053402
C     0.509340    1.209044   -0.234119    0.162109    0.042030   -0.022433
O    -2.044623   -1.108702    0.366011   -0.609452   -0.009682    0.067273
O     0.528837    2.408149   -0.420114    0.367127    0.018034   -0.034788
H     2.185578   -1.896091    0.083886    0.126370    0.608001   -0.095657
H    -0.100800   -2.497742    0.385391    0.631133   -0.174978   -0.081778
H     2.619016    0.579029   -0.325068    0.218598    0.474783   -0.105760
H    -1.574298    1.267440   -0.044463    0.116285   -0.415561    0.059674
H    -2.059799   -2.066172    0.565093   -1.074929    0.009543    0.007253
13
* Frequency(13)  570.1489
C     1.587445    0.161746   -0.169435    0.229413    0.436276   -0.096200
C     1.414952   -1.166744    0.043784    0.021843    0.493457   -0.072701
N     0.115451   -1.506777    0.214316    0.077678   -0.073707    0.008129
C    -0.848434   -0.598672    0.171006   -0.296539   -0.439278    0.094456
N    -0.757273    0.700357   -0.038288    0.097675   -0.428548    0.053402
C     0.494600    1.205223   -0.232080    0.162109    0.042030   -0.022433
O    -1.989210   -1.107821    0.359894   -0.609452   -0.009682    0.067273
O     0.495457    2.406509   -0.416951    0.367127    0.018034   -0.034788
H     2.174089   -1.951371    0.092584    0.126370    0.608001   -0.095657
H    -0.158184   -2.481833    0.392826    0.631133   -0.174978   -0.081778
H     2.599140    0.535860   -0.315452    0.218598    0.474783   -0.105760
H    -1.584871    1.305223   -0.049889    0.116285   -0.415561    0.059674
H    -1.962065   -2.067040    0.564434   -1.074929    0.009543    0.007253
13
* Frequency(13)  570.1489
C     1.572988    0.134253   -0.163373    0.229413    0.436276   -0.096200
C     1.413576   -1.197840    0.048366    0.021843    0.493457   -0.072701
N     0.110556   -1.502132    0.213803    0.077678   -0.073707    0.008129
C    -0.829747   -0.570990    0.165054   -0.296539   -0.439278    0.094456
N    -0.763428    0.727363   -0.041653    0.097675   -0.428548    0.053402
C     0.484385    1.202574   -0.230666    0.162109    0.042030   -0.022433
O    -1.950804   -1.107211    0.355655   -0.609452   -0.009682    0.067273
O     0.472322    2.405373   -0.414759    0.367127    0.018034   -0.034788
H     2.166125   -1.989686    0.098612    0.126370    0.608001   -0.095657
H    -0.197956   -2.470806    0.397980    0.631133   -0.174978   -0.081778
H     2.585365    0.505941   -0.308788    0.218598    0.474783   -0.105760
H    -1.592199    1.331411   -0.053649    0.116285   -0.415561    0.059674
H    -1.894326   -2.067641    0.563977   -1.074929    0.009543    0.007253
13
* Frequency(13)  570.1489
C     1.566500    0.121914   -0.160652    0.229413    0.436276   -0.096200
C     1.412958   -1.211797    0.050422    0.021843    0.493457   -0.072701
N     0.108359   -1.500047    0.213573    0.077678   -0.073707    0.008129
C    -0.821360   -0.558565    0.162382   -0.296539   -0.439278    0.094456
N    -0.766191    0.739484   -0.043163    0.097675   -0.428548    0.053402
C     0.479800    1.201385   -0.230031    0.162109    0.042030   -0.022433
O    -1.933566   -1.106938    0.353752   -0.609452   -0.009682    0.067273
O     0.461938    2.404863   -0.413775    0.367127    0.018034   -0.034788
H     2.162551   -2.006883    0.101317    0.126370    0.608001   -0.095657
H    -0.215807   -2.465857    0.400293    0.631133   -0.174978   -0.081778
H     2.579182    0.492512   -0.305796    0.218598    0.474783   -0.105760
H    -1.595488    1.343164   -0.055337    0.116285   -0.415561    0.059674
H    -1.863922   -2.067911    0.563772   -1.074929    0.009543    0.007253
13
* Frequency(13)  570.1489
C     1.568682    0.126065   -0.161567    0.229413    0.436276   -0.096200
C     1.413166   -1.207102    0.049730    0.021843    0.493457   -0.072701
N     0.109098   -1.500749    0.213651    0.077678   -0.073707    0.008129
C    -0.824181   -0.562745    0.163281   -0.296539   -0.439278    0.094456
N    -0.765261    0.735406   -0.042655    0.097675   -0.428548    0.053402
C     0.481342    1.201785   -0.230245    0.162109    0.042030   -0.022433
O    -1.939365   -1.107030    0.354392   -0.609452   -0.009682    0.067273
O     0.465431    2.405034   -0.414106    0.367127    0.018034   -0.034788
H     2.163753   -2.001098    0.100407    0.126370    0.608001   -0.095657
H    -0.209802   -2.467522    0.399514    0.631133   -0.174978   -0.081778
H     2.581262    0.497030   -0.306803    0.218598    0.474783   -0.105760
H    -1.594381    1.339211   -0.054769    0.116285   -0.415561    0.059674
H    -1.874150   -2.067820    0.563841   -1.074929    0.009543    0.007253
13
* Frequency(13)  570.1489
C     1.579300    0.146256   -0.166020    0.229413    0.436276   -0.096200
C     1.414177   -1.184264    0.046365    0.021843    0.493457   -0.072701
N     0.112693   -1.504160    0.214027    0.077678   -0.073707    0.008129
C    -0.837906   -0.583075    0.167652   -0.296539   -0.439278    0.094456
N    -0.760741    0.715572   -0.040184    0.097675   -0.428548    0.053402
C     0.488845    1.203730   -0.231283    0.162109    0.042030   -0.022433
O    -1.967572   -1.107478    0.357506   -0.609452   -0.009682    0.067273
O     0.482423    2.405869   -0.415716    0.367127    0.018034   -0.034788
H     2.169602   -1.972958    0.095980    0.126370    0.608001   -0.095657
H    -0.180592   -2.475621    0.395730    0.631133   -0.174978   -0.081778
H     2.591379    0.519003   -0.311697    0.218598    0.474783   -0.105760
H    -1.588999    1.319978   -0.052007    0.116285   -0.415561    0.059674
H    -1.923900   -2.067379    0.564176   -1.074929    0.009543    0.007253
13
* Frequency(13)  570.1489
C     1.597202    0.180301   -0.173527    0.229413    0.436276   -0.096200
C     1.415881   -1.145758    0.040692    0.021843    0.493457   -0.072701
N     0.118754   -1.509912    0.214661    0.077678   -0.073707    0.008129
C    -0.861046   -0.617354    0.175023   -0.296539   -0.439278    0.094456
N    -0.753119    0.682131   -0.036016    0.097675   -0.428548    0.053402
C     0.501495    1.207010   -0.233034    0.162109    0.042030   -0.022433
O    -2.015129   -1.108233    0.362755   -0.609452   -0.009682    0.067273
O     0.511071    2.407276   -0.418431    0.367127    0.018034   -0.034788
H     2.179463   -1.925514    0.088516    0.126370    0.608001   -0.095657
H    -0.131342   -2.489275    0.389348    0.631133   -0.174978   -0.081778
H     2.608437    0.556052   -0.319950    0.218598    0.474783   -0.105760
H    -1.579925    1.287550   -0.047351    0.116285   -0.415561    0.059674
H    -2.007780   -2.066634    0.564742   -1.074929    0.009543    0.007253
13
* Frequency(13)  570.1489
C     1.620448    0.224508   -0.183275    0.229413    0.436276   -0.096200
C     1.418094   -1.095756    0.033326    0.021843    0.493457   -0.072701
N     0.126625   -1.517380    0.215485    0.077678   -0.073707    0.008129
C    -0.891094   -0.661866    0.184594   -0.296539   -0.439278    0.094456
N    -0.743221    0.638707   -0.030605    0.097675   -0.428548    0.053402
C     0.517921    1.211269   -0.235307    0.162109    0.042030   -0.022433
O    -2.076885   -1.109214    0.369572   -0.609452   -0.009682    0.067273
O     0.548272    2.409103   -0.421956    0.367127    0.018034   -0.034788
H     2.192268   -1.863905    0.078823    0.126370    0.608001   -0.095657
H    -0.067390   -2.507005    0.381062    0.631133   -0.174978   -0.081778
H     2.630587    0.604162   -0.330667    0.218598    0.474783   -0.105760
H    -1.568142    1.245441   -0.041304    0.116285   -0.415561    0.059674
H    -2.116702   -2.065667    0.565477   -1.074929    0.009543    0.007253
13
* Frequency(13)  570.1489
C     1.646520    0.274089   -0.194207    0.229413    0.436276   -0.096200
C     1.420577   -1.039677    0.025063    0.021843    0.493457   -0.072701
N     0.135453   -1.525757    0.216409    0.077678   -0.073707    0.008129
C    -0.924794   -0.711788    0.195329   -0.296539   -0.439278    0.094456
N    -0.732121    0.590004   -0.024536    0.097675   -0.428548    0.053402
C     0.536344    1.216046   -0.237856    0.162109    0.042030   -0.022433
O    -2.146146   -1.110315    0.377217   -0.609452   -0.009682    0.067273
O     0.589994    2.411153   -0.425909    0.367127    0.018034   -0.034788
H     2.206629   -1.794809    0.067952    0.126370    0.608001   -0.095657
H     0.004335   -2.526891    0.371768    0.631133   -0.174978   -0.081778
H     2.655430    0.658119   -0.342686    0.218598    0.474783   -0.105760
H    -1.554927    1.198215   -0.034522    0.116285   -0.415561    0.059674
H    -2.238862   -2.064583    0.566301   -1.074929    0.009543    0.007253
