13
* (null), Energy   -1000.0000000
C     1.393781    0.533776   -0.062691    0.009247    0.015533    0.103679
C     1.168148   -0.779758    0.160441   -0.009760   -0.016738   -0.107148
N    -0.116197   -1.262094    0.357179    0.009465    0.015615    0.097672
C    -1.173993   -0.446979    0.334824   -0.004608   -0.006974   -0.050055
N    -0.982141    0.854104    0.116669   -0.013109   -0.019102   -0.129366
C     0.285100    1.476626   -0.101181   -0.008310   -0.012909   -0.081141
O    -2.392774   -0.849779    0.515859   -0.000904   -0.002911   -0.015722
O     0.338858    2.672655   -0.290012    0.000428   -0.000470    0.001571
H     1.953348   -1.535224    0.201378   -0.017975   -0.029736   -0.190171
H    -0.254993   -2.258813    0.525028    0.042375    0.070793    0.454282
H     2.401547    0.916834   -0.219517    0.025278    0.043065    0.274774
H    -1.805505    1.460126    0.102516    0.180733    0.290452    1.864463
H    -2.476740   -1.809302    0.672136   -0.012168   -0.021173   -0.133709
13
* Frequency(15)  657.6971
C     1.394832    0.535541   -0.050908    0.009247    0.015533    0.103679
C     1.167039   -0.781661    0.148264   -0.009760   -0.016738   -0.107148
N    -0.115121   -1.260319    0.368279    0.009465    0.015615    0.097672
C    -1.174517   -0.447772    0.329136   -0.004608   -0.006974   -0.050055
N    -0.983631    0.851933    0.101967   -0.013109   -0.019102   -0.129366
C     0.284156    1.475159   -0.110403   -0.008310   -0.012909   -0.081141
O    -2.392877   -0.850110    0.514072   -0.000904   -0.002911   -0.015722
O     0.338907    2.672601   -0.289833    0.000428   -0.000470    0.001571
H     1.951306   -1.538603    0.179766   -0.017975   -0.029736   -0.190171
H    -0.250178   -2.250768    0.576655    0.042375    0.070793    0.454282
H     2.404419    0.921728   -0.188290    0.025278    0.043065    0.274774
H    -1.784966    1.493135    0.314402    0.180733    0.290452    1.864463
H    -2.478123   -1.811708    0.656941   -0.012168   -0.021173   -0.133709
13
* Frequency(15)  657.6971
C     1.395769    0.537115   -0.040402    0.009247    0.015533    0.103679
C     1.166050   -0.783357    0.137407   -0.009760   -0.016738   -0.107148
N    -0.114162   -1.258737    0.378177    0.009465    0.015615    0.097672
C    -1.174984   -0.448478    0.324064   -0.004608   -0.006974   -0.050055
N    -0.984959    0.849997    0.088859   -0.013109   -0.019102   -0.129366
C     0.283314    1.473851   -0.118625   -0.008310   -0.012909   -0.081141
O    -2.392969   -0.850405    0.512479   -0.000904   -0.002911   -0.015722
O     0.338950    2.672553   -0.289674    0.000428   -0.000470    0.001571
H     1.949484   -1.541616    0.160496   -0.017975   -0.029736   -0.190171
H    -0.245884   -2.243595    0.622687    0.042375    0.070793    0.454282
H     2.406981    0.926091   -0.160447    0.025278    0.043065    0.274774
H    -1.766652    1.522566    0.503328    0.180733    0.290452    1.864463
H    -2.479356   -1.813853    0.643392   -0.012168   -0.021173   -0.133709
13
* Frequency(15)  657.6971
C     1.396491    0.538327   -0.032312    0.009247    0.015533    0.103679
C     1.165289   -0.784663    0.129046   -0.009760   -0.016738   -0.107148
N    -0.113423   -1.257518    0.385798    0.009465    0.015615    0.097672
C    -1.175343   -0.449022    0.320157   -0.004608   -0.006974   -0.050055
N    -0.985982    0.848507    0.078764   -0.013109   -0.019102   -0.129366
C     0.282665    1.472843   -0.124957   -0.008310   -0.012909   -0.081141
O    -2.393039   -0.850632    0.511252   -0.000904   -0.002911   -0.015722
O     0.338984    2.672517   -0.289552    0.000428   -0.000470    0.001571
H     1.948081   -1.543937    0.145656   -0.017975   -0.029736   -0.190171
H    -0.242577   -2.238070    0.658136    0.042375    0.070793    0.454282
H     2.408953    0.929452   -0.139005    0.025278    0.043065    0.274774
H    -1.752549    1.545231    0.648819    0.180733    0.290452    1.864463
H    -2.480305   -1.815505    0.632958   -0.012168   -0.021173   -0.133709
13
* Frequency(15)  657.6971
C     1.396919    0.539046   -0.027513    0.009247    0.015533    0.103679
C     1.164837   -0.785437    0.124087   -0.009760   -0.016738   -0.107148
N    -0.112985   -1.256796    0.390319    0.009465    0.015615    0.097672
C    -1.175556   -0.449345    0.317841   -0.004608   -0.006974   -0.050055
N    -0.986589    0.847623    0.072776   -0.013109   -0.019102   -0.129366
C     0.282280    1.472246   -0.128712   -0.008310   -0.012909   -0.081141
O    -2.393081   -0.850767    0.510525   -0.000904   -0.002911   -0.015722
O     0.339003    2.672495   -0.289479    0.000428   -0.000470    0.001571
H     1.947250   -1.545313    0.136855   -0.017975   -0.029736   -0.190171
H    -0.240616   -2.234794    0.679161    0.042375    0.070793    0.454282
H     2.410123    0.931445   -0.126288    0.025278    0.043065    0.274774
H    -1.744184    1.558674    0.735109    0.180733    0.290452    1.864463
H    -2.480868   -1.816485    0.626770   -0.012168   -0.021173   -0.133709
13
* Frequency(15)  657.6971
C     1.397007    0.539194   -0.026527    0.009247    0.015533    0.103679
C     1.164744   -0.785597    0.123067   -0.009760   -0.016738   -0.107148
N    -0.112895   -1.256647    0.391248    0.009465    0.015615    0.097672
C    -1.175600   -0.449412    0.317365   -0.004608   -0.006974   -0.050055
N    -0.986713    0.847441    0.071545   -0.013109   -0.019102   -0.129366
C     0.282201    1.472123   -0.129484   -0.008310   -0.012909   -0.081141
O    -2.393089   -0.850795    0.510375   -0.000904   -0.002911   -0.015722
O     0.339007    2.672490   -0.289464    0.000428   -0.000470    0.001571
H     1.947079   -1.545596    0.135045   -0.017975   -0.029736   -0.190171
H    -0.240213   -2.234121    0.683484    0.042375    0.070793    0.454282
H     2.410364    0.931855   -0.123674    0.025278    0.043065    0.274774
H    -1.742464    1.561437    0.752849    0.180733    0.290452    1.864463
H    -2.480984   -1.816687    0.625498   -0.012168   -0.021173   -0.133709
13
* Frequency(15)  657.6971
C     1.396745    0.538754   -0.029459    0.009247    0.015533    0.103679
C     1.165020   -0.785123    0.126098   -0.009760   -0.016738   -0.107148
N    -0.113163   -1.257089    0.388485    0.009465    0.015615    0.097672
C    -1.175470   -0.449214    0.318780   -0.004608   -0.006974   -0.050055
N    -0.986343    0.847981    0.075204   -0.013109   -0.019102   -0.129366
C     0.282436    1.472488   -0.127189   -0.008310   -0.012909   -0.081141
O    -2.393064   -0.850712    0.510820   -0.000904   -0.002911   -0.015722
O     0.338995    2.672504   -0.289508    0.000428   -0.000470    0.001571
H     1.947587   -1.544755    0.140424   -0.017975   -0.029736   -0.190171
H    -0.241411   -2.236123    0.670635    0.042375    0.070793    0.454282
H     2.409649    0.930637   -0.131446    0.025278    0.043065    0.274774
H    -1.747576    1.553222    0.700115    0.180733    0.290452    1.864463
H    -2.480640   -1.816088    0.629280   -0.012168   -0.021173   -0.133709
13
* Frequency(15)  657.6971
C     1.396162    0.537776   -0.035993    0.009247    0.015533    0.103679
C     1.165635   -0.784069    0.132850   -0.009760   -0.016738   -0.107148
N    -0.113759   -1.258073    0.382330    0.009465    0.015615    0.097672
C    -1.175180   -0.448775    0.321935   -0.004608   -0.006974   -0.050055
N    -0.985517    0.849185    0.083357   -0.013109   -0.019102   -0.129366
C     0.282960    1.473302   -0.122076   -0.008310   -0.012909   -0.081141
O    -2.393007   -0.850529    0.511811   -0.000904   -0.002911   -0.015722
O     0.338968    2.672533   -0.289607    0.000428   -0.000470    0.001571
H     1.948720   -1.542881    0.152408   -0.017975   -0.029736   -0.190171
H    -0.244082   -2.240584    0.642007    0.042375    0.070793    0.454282
H     2.408056    0.927923   -0.148761    0.025278    0.043065    0.274774
H    -1.758966    1.534919    0.582621    0.180733    0.290452    1.864463
H    -2.479873   -1.814754    0.637706   -0.012168   -0.021173   -0.133709
13
* Frequency(15)  657.6971
C     1.395322    0.536363   -0.045420    0.009247    0.015533    0.103679
C     1.166522   -0.782547    0.142592   -0.009760   -0.016738   -0.107148
N    -0.114620   -1.259493    0.373450    0.009465    0.015615    0.097672
C    -1.174761   -0.448141    0.326486   -0.004608   -0.006974   -0.050055
N    -0.984325    0.850922    0.095119   -0.013109   -0.019102   -0.129366
C     0.283716    1.474475   -0.114698   -0.008310   -0.012909   -0.081141
O    -2.392925   -0.850264    0.513240   -0.000904   -0.002911   -0.015722
O     0.338929    2.672576   -0.289750    0.000428   -0.000470    0.001571
H     1.950354   -1.540177    0.169699   -0.017975   -0.029736   -0.190171
H    -0.247934   -2.247021    0.600703    0.042375    0.070793    0.454282
H     2.405757    0.924007   -0.173744    0.025278    0.043065    0.274774
H    -1.775398    1.508510    0.413101    0.180733    0.290452    1.864463
H    -2.478767   -1.812829    0.649863   -0.012168   -0.021173   -0.133709
13
* Frequency(15)  657.6971
C     1.394314    0.534671   -0.056718    0.009247    0.015533    0.103679
C     1.167586   -0.780723    0.154269   -0.009760   -0.016738   -0.107148
N    -0.115652   -1.261194    0.362806    0.009465    0.015615    0.097672
C    -1.174258   -0.447381    0.331941   -0.004608   -0.006974   -0.050055
N    -0.982896    0.853003    0.109216   -0.013109   -0.019102   -0.129366
C     0.284621    1.475882   -0.105856   -0.008310   -0.012909   -0.081141
O    -2.392826   -0.849947    0.514953   -0.000904   -0.002911   -0.015722
O     0.338883    2.672627   -0.289921    0.000428   -0.000470    0.001571
H     1.952313   -1.536937    0.190422   -0.017975   -0.029736   -0.190171
H    -0.252552   -2.254735    0.551198    0.042375    0.070793    0.454282
H     2.403003    0.919314   -0.203687    0.025278    0.043065    0.274774
H    -1.795093    1.476859    0.209924    0.180733    0.290452    1.864463
H    -2.477441   -1.810521    0.664433   -0.012168   -0.021173   -0.133709
13
* Frequency(15)  657.6971
C     1.393249    0.532881   -0.068663    0.009247    0.015533    0.103679
C     1.168711   -0.778794    0.166614   -0.009760   -0.016738   -0.107148
N    -0.116742   -1.262993    0.351553    0.009465    0.015615    0.097672
C    -1.173727   -0.446577    0.337708   -0.004608   -0.006974   -0.050055
N    -0.981386    0.855204    0.124121   -0.013109   -0.019102   -0.129366
C     0.285579    1.477369   -0.096507   -0.008310   -0.012909   -0.081141
O    -2.392722   -0.849612    0.516765   -0.000904   -0.002911   -0.015722
O     0.338834    2.672682   -0.290103    0.000428   -0.000470    0.001571
H     1.954384   -1.533511    0.212333   -0.017975   -0.029736   -0.190171
H    -0.257434   -2.262892    0.498858    0.042375    0.070793    0.454282
H     2.400090    0.914353   -0.235346    0.025278    0.043065    0.274774
H    -1.815917    1.443394   -0.004892    0.180733    0.290452    1.864463
H    -2.476039   -1.808082    0.679839   -0.012168   -0.021173   -0.133709
13
* Frequency(15)  657.6971
C     1.392241    0.531188   -0.079962    0.009247    0.015533    0.103679
C     1.169774   -0.776970    0.178290   -0.009760   -0.016738   -0.107148
N    -0.117773   -1.264695    0.340909    0.009465    0.015615    0.097672
C    -1.173225   -0.445817    0.343162   -0.004608   -0.006974   -0.050055
N    -0.979957    0.857286    0.138219   -0.013109   -0.019102   -0.129366
C     0.286484    1.478776   -0.087665   -0.008310   -0.012909   -0.081141
O    -2.392624   -0.849294    0.518478   -0.000904   -0.002911   -0.015722
O     0.338787    2.672733   -0.290274    0.000428   -0.000470    0.001571
H     1.956343   -1.530270    0.233057   -0.017975   -0.029736   -0.190171
H    -0.262052   -2.270606    0.449353    0.042375    0.070793    0.454282
H     2.397336    0.909660   -0.265289    0.025278    0.043065    0.274774
H    -1.835612    1.411742   -0.208069    0.180733    0.290452    1.864463
H    -2.474713   -1.805775    0.694410   -0.012168   -0.021173   -0.133709
13
* Frequency(15)  657.6971
C     1.391400    0.529776   -0.089388    0.009247    0.015533    0.103679
C     1.170662   -0.775448    0.188032   -0.009760   -0.016738   -0.107148
N    -0.118634   -1.266115    0.332028    0.009465    0.015615    0.097672
C    -1.172806   -0.445183    0.347714   -0.004608   -0.006974   -0.050055
N    -0.978765    0.859022    0.149981   -0.013109   -0.019102   -0.129366
C     0.287240    1.479950   -0.080287   -0.008310   -0.012909   -0.081141
O    -2.392542   -0.849030    0.519907   -0.000904   -0.002911   -0.015722
O     0.338748    2.672776   -0.290417    0.000428   -0.000470    0.001571
H     1.957977   -1.527567    0.250347   -0.017975   -0.029736   -0.190171
H    -0.265905   -2.277043    0.408049    0.042375    0.070793    0.454282
H     2.395037    0.905744   -0.290272    0.025278    0.043065    0.274774
H    -1.852044    1.385334   -0.377590    0.180733    0.290452    1.864463
H    -2.473607   -1.803850    0.706567   -0.012168   -0.021173   -0.133709
13
* Frequency(15)  657.6971
C     1.390818    0.528797   -0.095922    0.009247    0.015533    0.103679
C     1.171277   -0.774394    0.194784   -0.009760   -0.016738   -0.107148
N    -0.119231   -1.267099    0.325873    0.009465    0.015615    0.097672
C    -1.172516   -0.444744    0.350868   -0.004608   -0.006974   -0.050055
N    -0.977939    0.860226    0.158133   -0.013109   -0.019102   -0.129366
C     0.287764    1.480763   -0.075174   -0.008310   -0.012909   -0.081141
O    -2.392485   -0.848846    0.520898   -0.000904   -0.002911   -0.015722
O     0.338721    2.672805   -0.290516    0.000428   -0.000470    0.001571
H     1.959110   -1.525693    0.262332   -0.017975   -0.029736   -0.190171
H    -0.268575   -2.281504    0.379421    0.042375    0.070793    0.454282
H     2.393444    0.903030   -0.307587    0.025278    0.043065    0.274774
H    -1.863434    1.367031   -0.495083    0.180733    0.290452    1.864463
H    -2.472840   -1.802515    0.714993   -0.012168   -0.021173   -0.133709
13
* Frequency(15)  657.6971
C     1.390556    0.528358   -0.098854    0.009247    0.015533    0.103679
C     1.171553   -0.773920    0.197815   -0.009760   -0.016738   -0.107148
N    -0.119498   -1.267541    0.323111    0.009465    0.015615    0.097672
C    -1.172385   -0.444546    0.352284   -0.004608   -0.006974   -0.050055
N    -0.977568    0.860767    0.161792   -0.013109   -0.019102   -0.129366
C     0.287999    1.481128   -0.072879   -0.008310   -0.012909   -0.081141
O    -2.392459   -0.848764    0.521343   -0.000904   -0.002911   -0.015722
O     0.338709    2.672819   -0.290560    0.000428   -0.000470    0.001571
H     1.959618   -1.524852    0.267710   -0.017975   -0.029736   -0.190171
H    -0.269774   -2.283506    0.366573    0.042375    0.070793    0.454282
H     2.392729    0.901812   -0.315359    0.025278    0.043065    0.274774
H    -1.868545    1.358815   -0.547817    0.180733    0.290452    1.864463
H    -2.472496   -1.801916    0.718774   -0.012168   -0.021173   -0.133709
13
* Frequency(15)  657.6971
C     1.390644    0.528506   -0.097868    0.009247    0.015533    0.103679
C     1.171460   -0.774080    0.196795   -0.009760   -0.016738   -0.107148
N    -0.119408   -1.267392    0.324040    0.009465    0.015615    0.097672
C    -1.172429   -0.444613    0.351807   -0.004608   -0.006974   -0.050055
N    -0.977693    0.860585    0.160561   -0.013109   -0.019102   -0.129366
C     0.287920    1.481006   -0.073651   -0.008310   -0.012909   -0.081141
O    -2.392468   -0.848792    0.521193   -0.000904   -0.002911   -0.015722
O     0.338713    2.672814   -0.290545    0.000428   -0.000470    0.001571
H     1.959447   -1.525135    0.265901   -0.017975   -0.029736   -0.190171
H    -0.269371   -2.282833    0.370895    0.042375    0.070793    0.454282
H     2.392970    0.902222   -0.312745    0.025278    0.043065    0.274774
H    -1.866826    1.361579   -0.530078    0.180733    0.290452    1.864463
H    -2.472611   -1.802118    0.717502   -0.012168   -0.021173   -0.133709
13
* Frequency(15)  657.6971
C     1.391072    0.529224   -0.093069    0.009247    0.015533    0.103679
C     1.171008   -0.774854    0.191836   -0.009760   -0.016738   -0.107148
N    -0.118970   -1.266669    0.328561    0.009465    0.015615    0.097672
C    -1.172643   -0.444935    0.349491   -0.004608   -0.006974   -0.050055
N    -0.978300    0.859701    0.154574   -0.013109   -0.019102   -0.129366
C     0.287535    1.480408   -0.077406   -0.008310   -0.012909   -0.081141
O    -2.392509   -0.848926    0.520466   -0.000904   -0.002911   -0.015722
O     0.338733    2.672792   -0.290472    0.000428   -0.000470    0.001571
H     1.958615   -1.526511    0.257099   -0.017975   -0.029736   -0.190171
H    -0.267409   -2.279556    0.391920    0.042375    0.070793    0.454282
H     2.394140    0.904215   -0.300028    0.025278    0.043065    0.274774
H    -1.858461    1.375022   -0.443787    0.180733    0.290452    1.864463
H    -2.473175   -1.803098    0.711314   -0.012168   -0.021173   -0.133709
13
* Frequency(15)  657.6971
C     1.391794    0.530437   -0.084979    0.009247    0.015533    0.103679
C     1.170246   -0.776160    0.183475   -0.009760   -0.016738   -0.107148
N    -0.118232   -1.265451    0.336182    0.009465    0.015615    0.097672
C    -1.173002   -0.445480    0.345585   -0.004608   -0.006974   -0.050055
N    -0.979323    0.858210    0.144479   -0.013109   -0.019102   -0.129366
C     0.286887    1.479401   -0.083738   -0.008310   -0.012909   -0.081141
O    -2.392580   -0.849154    0.519239   -0.000904   -0.002911   -0.015722
O     0.338766    2.672756   -0.290350    0.000428   -0.000470    0.001571
H     1.957212   -1.528831    0.242260   -0.017975   -0.029736   -0.190171
H    -0.264103   -2.274032    0.427369    0.042375    0.070793    0.454282
H     2.396112    0.907576   -0.278586    0.025278    0.043065    0.274774
H    -1.844358    1.397687   -0.298296    0.180733    0.290452    1.864463
H    -2.474124   -1.804750    0.700880   -0.012168   -0.021173   -0.133709
13
* Frequency(15)  657.6971
C     1.392731    0.532011   -0.074473    0.009247    0.015533    0.103679
C     1.169257   -0.777856    0.172618   -0.009760   -0.016738   -0.107148
N    -0.117272   -1.263868    0.346080    0.009465    0.015615    0.097672
C    -1.173469   -0.446186    0.340513   -0.004608   -0.006974   -0.050055
N    -0.980651    0.856275    0.131371   -0.013109   -0.019102   -0.129366
C     0.286045    1.478093   -0.091960   -0.008310   -0.012909   -0.081141
O    -2.392672   -0.849449    0.517646   -0.000904   -0.002911   -0.015722
O     0.338810    2.672708   -0.290191    0.000428   -0.000470    0.001571
H     1.955391   -1.531844    0.222990   -0.017975   -0.029736   -0.190171
H    -0.259809   -2.266859    0.473401    0.042375    0.070793    0.454282
H     2.398674    0.911939   -0.250743    0.025278    0.043065    0.274774
H    -1.826044    1.427118   -0.109371    0.180733    0.290452    1.864463
H    -2.475357   -1.806895    0.687331   -0.012168   -0.021173   -0.133709
13
* Frequency(15)  657.6971
C     1.393781    0.533776   -0.062691    0.009247    0.015533    0.103679
C     1.168148   -0.779758    0.160441   -0.009760   -0.016738   -0.107148
N    -0.116197   -1.262094    0.357179    0.009465    0.015615    0.097672
C    -1.173993   -0.446979    0.334824   -0.004608   -0.006974   -0.050055
N    -0.982141    0.854104    0.116669   -0.013109   -0.019102   -0.129366
C     0.285100    1.476626   -0.101181   -0.008310   -0.012909   -0.081141
O    -2.392774   -0.849779    0.515859   -0.000904   -0.002911   -0.015722
O     0.338858    2.672655   -0.290012    0.000428   -0.000470    0.001571
H     1.953348   -1.535224    0.201378   -0.017975   -0.029736   -0.190171
H    -0.254993   -2.258813    0.525028    0.042375    0.070793    0.454282
H     2.401547    0.916834   -0.219517    0.025278    0.043065    0.274774
H    -1.805505    1.460126    0.102516    0.180733    0.290452    1.864463
H    -2.476740   -1.809302    0.672136   -0.012168   -0.021173   -0.133709
