13
* (null), Energy   -1000.0000000
C     1.646520    0.274089   -0.194207   -0.000830    0.134411   -0.020224
C     1.420577   -1.039677    0.025063    0.027756   -0.159008    0.021216
N     0.135453   -1.525757    0.216409   -0.341415    0.063245    0.023066
C    -0.924794   -0.711788    0.195329    0.600534    0.298714   -0.105325
N    -0.732121    0.590004   -0.024536   -0.143540   -0.240821    0.051001
C     0.536344    1.216046   -0.237856   -0.009261    0.088563   -0.012417
O    -2.146146   -1.110315    0.377217   -0.166647   -0.099167    0.033100
O     0.589994    2.411153   -0.425909    0.015087   -0.044147    0.005249
H     2.206629   -1.794809    0.067952    0.301421    0.071626   -0.038046
H     0.004335   -2.526891    0.371768    1.419926   -0.193934   -0.112436
H     2.655430    0.658119   -0.342686    0.109025   -0.074416    0.001211
H    -1.554927    1.198215   -0.034522    0.527511    0.647393   -0.154447
H    -2.238862   -2.064583    0.566301   -0.579727   -0.029999    0.056975
13
* Frequency(31) 1698.0883
C     1.646426    0.289364   -0.196506   -0.000830    0.134411   -0.020224
C     1.423731   -1.057748    0.027475    0.027756   -0.159008    0.021216
N     0.096653   -1.518569    0.219030   -0.341415    0.063245    0.023066
C    -0.856546   -0.677840    0.183359    0.600534    0.298714   -0.105325
N    -0.748434    0.562636   -0.018740   -0.143540   -0.240821    0.051001
C     0.535291    1.226110   -0.239267   -0.009261    0.088563   -0.012417
O    -2.165085   -1.121584    0.380979   -0.166647   -0.099167    0.033100
O     0.591708    2.406136   -0.425313    0.015087   -0.044147    0.005249
H     2.240884   -1.786669    0.063628    0.301421    0.071626   -0.038046
H     0.165703   -2.548930    0.358990    1.419926   -0.193934   -0.112436
H     2.667820    0.649662   -0.342548    0.109025   -0.074416    0.001211
H    -1.494978    1.271788   -0.052074    0.527511    0.647393   -0.154447
H    -2.304745   -2.067992    0.572776   -0.579727   -0.029999    0.056975
13
* Frequency(31) 1698.0883
C     1.646342    0.302984   -0.198555   -0.000830    0.134411   -0.020224
C     1.426544   -1.073860    0.029624    0.027756   -0.159008    0.021216
N     0.062057   -1.512161    0.221368   -0.341415    0.063245    0.023066
C    -0.795694   -0.647572    0.172687    0.600534    0.298714   -0.105325
N    -0.762979    0.538234   -0.013573   -0.143540   -0.240821    0.051001
C     0.534353    1.235084   -0.240525   -0.009261    0.088563   -0.012417
O    -2.181971   -1.131633    0.384333   -0.166647   -0.099167    0.033100
O     0.593237    2.401662   -0.424781    0.015087   -0.044147    0.005249
H     2.271427   -1.779411    0.059773    0.301421    0.071626   -0.038046
H     0.309583   -2.568581    0.347597    1.419926   -0.193934   -0.112436
H     2.678867    0.642121   -0.342426    0.109025   -0.074416    0.001211
H    -1.441526    1.337388   -0.067725    0.527511    0.647393   -0.154447
H    -2.363489   -2.071032    0.578550   -0.579727   -0.029999    0.056975
13
* Frequency(31) 1698.0883
C     1.646277    0.313472   -0.200133   -0.000830    0.134411   -0.020224
C     1.428709   -1.086268    0.031280    0.027756   -0.159008    0.021216
N     0.035416   -1.507225    0.223168   -0.341415    0.063245    0.023066
C    -0.748832   -0.624262    0.164468    0.600534    0.298714   -0.105325
N    -0.774180    0.519442   -0.009593   -0.143540   -0.240821    0.051001
C     0.533630    1.241995   -0.241494   -0.009261    0.088563   -0.012417
O    -2.194975   -1.139371    0.386916   -0.166647   -0.099167    0.033100
O     0.594414    2.398217   -0.424371    0.015087   -0.044147    0.005249
H     2.294948   -1.773822    0.056804    0.301421    0.071626   -0.038046
H     0.420385   -2.583715    0.338823    1.419926   -0.193934   -0.112436
H     2.687375    0.636314   -0.342331    0.109025   -0.074416    0.001211
H    -1.400362    1.387906   -0.079777    0.527511    0.647393   -0.154447
H    -2.408727   -2.073373    0.582996   -0.579727   -0.029999    0.056975
13
* Frequency(31) 1698.0883
C     1.646238    0.319693   -0.201069   -0.000830    0.134411   -0.020224
C     1.429994   -1.093627    0.032262    0.027756   -0.159008    0.021216
N     0.019614   -1.504298    0.224235   -0.341415    0.063245    0.023066
C    -0.721039   -0.610437    0.159593    0.600534    0.298714   -0.105325
N    -0.780823    0.508296   -0.007232   -0.143540   -0.240821    0.051001
C     0.533202    1.246094   -0.242069   -0.009261    0.088563   -0.012417
O    -2.202688   -1.143961    0.388448   -0.166647   -0.099167    0.033100
O     0.595113    2.396174   -0.424128    0.015087   -0.044147    0.005249
H     2.308899   -1.770507    0.055043    0.301421    0.071626   -0.038046
H     0.486102   -2.592690    0.333619    1.419926   -0.193934   -0.112436
H     2.692421    0.632870   -0.342275    0.109025   -0.074416    0.001211
H    -1.375948    1.417869   -0.086925    0.527511    0.647393   -0.154447
H    -2.435558   -2.074761    0.585633   -0.579727   -0.029999    0.056975
13
* Frequency(31) 1698.0883
C     1.646231    0.320972   -0.201261   -0.000830    0.134411   -0.020224
C     1.430258   -1.095140    0.032464    0.027756   -0.159008    0.021216
N     0.016366   -1.503697    0.224455   -0.341415    0.063245    0.023066
C    -0.715325   -0.607595    0.158591    0.600534    0.298714   -0.105325
N    -0.782189    0.506005   -0.006747   -0.143540   -0.240821    0.051001
C     0.533114    1.246937   -0.242187   -0.009261    0.088563   -0.012417
O    -2.204274   -1.144904    0.388763   -0.166647   -0.099167    0.033100
O     0.595256    2.395754   -0.424078    0.015087   -0.044147    0.005249
H     2.311766   -1.769826    0.054681    0.301421    0.071626   -0.038046
H     0.499612   -2.594536    0.332550    1.419926   -0.193934   -0.112436
H     2.693458    0.632162   -0.342263    0.109025   -0.074416    0.001211
H    -1.370929    1.424029   -0.088394    0.527511    0.647393   -0.154447
H    -2.441074   -2.075047    0.586175   -0.579727   -0.029999    0.056975
13
* Frequency(31) 1698.0883
C     1.646254    0.317170   -0.200689   -0.000830    0.134411   -0.020224
C     1.429473   -1.090642    0.031864    0.027756   -0.159008    0.021216
N     0.026022   -1.505485    0.223802   -0.341415    0.063245    0.023066
C    -0.732310   -0.616043    0.161570    0.600534    0.298714   -0.105325
N    -0.778129    0.512816   -0.008190   -0.143540   -0.240821    0.051001
C     0.533376    1.244432   -0.241836   -0.009261    0.088563   -0.012417
O    -2.199560   -1.142100    0.387827   -0.166647   -0.099167    0.033100
O     0.594830    2.397003   -0.424227    0.015087   -0.044147    0.005249
H     2.303241   -1.771852    0.055757    0.301421    0.071626   -0.038046
H     0.459451   -2.589050    0.335730    1.419926   -0.193934   -0.112436
H     2.690375    0.634267   -0.342298    0.109025   -0.074416    0.001211
H    -1.385849    1.405718   -0.084026    0.527511    0.647393   -0.154447
H    -2.424677   -2.074198    0.584563   -0.579727   -0.029999    0.056975
13
* Frequency(31) 1698.0883
C     1.646306    0.308700   -0.199415   -0.000830    0.134411   -0.020224
C     1.427724   -1.080622    0.030527    0.027756   -0.159008    0.021216
N     0.047537   -1.509471    0.222349   -0.341415    0.063245    0.023066
C    -0.770154   -0.634868    0.168207    0.600534    0.298714   -0.105325
N    -0.769083    0.527992   -0.011403   -0.143540   -0.240821    0.051001
C     0.533959    1.238851   -0.241053   -0.009261    0.088563   -0.012417
O    -2.189058   -1.135850    0.385741   -0.166647   -0.099167    0.033100
O     0.593879    2.399785   -0.424558    0.015087   -0.044147    0.005249
H     2.284246   -1.776365    0.058155    0.301421    0.071626   -0.038046
H     0.369971   -2.576829    0.342815    1.419926   -0.193934   -0.112436
H     2.683504    0.638956   -0.342374    0.109025   -0.074416    0.001211
H    -1.419091    1.364921   -0.074293    0.527511    0.647393   -0.154447
H    -2.388144   -2.072308    0.580973   -0.579727   -0.029999    0.056975
13
* Frequency(31) 1698.0883
C     1.646382    0.296479   -0.197576   -0.000830    0.134411   -0.020224
C     1.425200   -1.066165    0.028598    0.027756   -0.159008    0.021216
N     0.078580   -1.515221    0.220251   -0.341415    0.063245    0.023066
C    -0.824756   -0.662027    0.177784    0.600534    0.298714   -0.105325
N    -0.756032    0.549888   -0.016041   -0.143540   -0.240821    0.051001
C     0.534801    1.230799   -0.239924   -0.009261    0.088563   -0.012417
O    -2.173907   -1.126834    0.382731   -0.166647   -0.099167    0.033100
O     0.592507    2.403799   -0.425035    0.015087   -0.044147    0.005249
H     2.256841   -1.782878    0.061614    0.301421    0.071626   -0.038046
H     0.240869   -2.559196    0.353038    1.419926   -0.193934   -0.112436
H     2.673591    0.645722   -0.342484    0.109025   -0.074416    0.001211
H    -1.467053    1.306059   -0.060250    0.527511    0.647393   -0.154447
H    -2.335434   -2.069580    0.575792   -0.579727   -0.029999    0.056975
13
* Frequency(31) 1698.0883
C     1.646472    0.281832   -0.195372   -0.000830    0.134411   -0.020224
C     1.422176   -1.048837    0.026286    0.027756   -0.159008    0.021216
N     0.115785   -1.522113    0.217738   -0.341415    0.063245    0.023066
C    -0.890198   -0.694579    0.189261    0.600534    0.298714   -0.105325
N    -0.740390    0.576131   -0.021598   -0.143540   -0.240821    0.051001
C     0.535810    1.221148   -0.238571   -0.009261    0.088563   -0.012417
O    -2.155746   -1.116027    0.379124   -0.166647   -0.099167    0.033100
O     0.590863    2.408610   -0.425607    0.015087   -0.044147    0.005249
H     2.223994   -1.790683    0.065760    0.301421    0.071626   -0.038046
H     0.086135   -2.538063    0.365291    1.419926   -0.193934   -0.112436
H     2.661711    0.653832   -0.342616    0.109025   -0.074416    0.001211
H    -1.524538    1.235510   -0.043420    0.527511    0.647393   -0.154447
H    -2.272259   -2.066311    0.569584   -0.579727   -0.029999    0.056975
13
* Frequency(31) 1698.0883
C     1.646568    0.266346   -0.193042   -0.000830    0.134411   -0.020224
C     1.418978   -1.030517    0.023841    0.027756   -0.159008    0.021216
N     0.155121   -1.529400    0.215080   -0.341415    0.063245    0.023066
C    -0.959390   -0.728996    0.201396    0.600534    0.298714   -0.105325
N    -0.723852    0.603877   -0.027474   -0.143540   -0.240821    0.051001
C     0.536877    1.210944   -0.237141   -0.009261    0.088563   -0.012417
O    -2.136546   -1.104602    0.375311   -0.166647   -0.099167    0.033100
O     0.589125    2.413696   -0.426212    0.015087   -0.044147    0.005249
H     2.189265   -1.798935    0.070144    0.301421    0.071626   -0.038046
H    -0.077464   -2.515719    0.378245    1.419926   -0.193934   -0.112436
H     2.649149    0.662406   -0.342756    0.109025   -0.074416    0.001211
H    -1.585316    1.160920   -0.025625    0.527511    0.647393   -0.154447
H    -2.205465   -2.062854    0.563019   -0.579727   -0.029999    0.056975
13
* Frequency(31) 1698.0883
C     1.646658    0.251698   -0.190838   -0.000830    0.134411   -0.020224
C     1.415953   -1.013189    0.021529    0.027756   -0.159008    0.021216
N     0.192326   -1.536292    0.212566   -0.341415    0.063245    0.023066
C    -1.024832   -0.761548    0.212874    0.600534    0.298714   -0.105325
N    -0.708210    0.630121   -0.033032   -0.143540   -0.240821    0.051001
C     0.537887    1.201293   -0.235788   -0.009261    0.088563   -0.012417
O    -2.118386   -1.093795    0.371704   -0.166647   -0.099167    0.033100
O     0.587481    2.418507   -0.426784    0.015087   -0.044147    0.005249
H     2.156418   -1.806741    0.074290    0.301421    0.071626   -0.038046
H    -0.232198   -2.494585    0.390498    1.419926   -0.193934   -0.112436
H     2.637268    0.670515   -0.342888    0.109025   -0.074416    0.001211
H    -1.642801    1.090371   -0.008794    0.527511    0.647393   -0.154447
H    -2.142291   -2.059585    0.556810   -0.579727   -0.029999    0.056975
13
* Frequency(31) 1698.0883
C     1.646734    0.239478   -0.188999   -0.000830    0.134411   -0.020224
C     1.413429   -0.998732    0.019600    0.027756   -0.159008    0.021216
N     0.223368   -1.542042    0.210469   -0.341415    0.063245    0.023066
C    -1.079434   -0.788707    0.222450    0.600534    0.298714   -0.105325
N    -0.695159    0.652016   -0.037669   -0.143540   -0.240821    0.051001
C     0.538729    1.193240   -0.234659   -0.009261    0.088563   -0.012417
O    -2.103234   -1.084779    0.368694   -0.166647   -0.099167    0.033100
O     0.586109    2.422521   -0.427261    0.015087   -0.044147    0.005249
H     2.129012   -1.813253    0.077749    0.301421    0.071626   -0.038046
H    -0.361301   -2.476952    0.400721    1.419926   -0.193934   -0.112436
H     2.627356    0.677281   -0.342998    0.109025   -0.074416    0.001211
H    -1.690763    1.031509    0.005248    0.527511    0.647393   -0.154447
H    -2.089581   -2.056858    0.551630   -0.579727   -0.029999    0.056975
13
* Frequency(31) 1698.0883
C     1.646786    0.231007   -0.187725   -0.000830    0.134411   -0.020224
C     1.411680   -0.988712    0.018263    0.027756   -0.159008    0.021216
N     0.244884   -1.546028    0.209016   -0.341415    0.063245    0.023066
C    -1.117278   -0.807532    0.229088    0.600534    0.298714   -0.105325
N    -0.686114    0.667192   -0.040883   -0.143540   -0.240821    0.051001
C     0.539312    1.187659   -0.233876   -0.009261    0.088563   -0.012417
O    -2.092732   -1.078530    0.366608   -0.166647   -0.099167    0.033100
O     0.585158    2.425303   -0.427592    0.015087   -0.044147    0.005249
H     2.110017   -1.817766    0.080147    0.301421    0.071626   -0.038046
H    -0.450780   -2.464731    0.407806    1.419926   -0.193934   -0.112436
H     2.620485    0.681971   -0.343074    0.109025   -0.074416    0.001211
H    -1.724005    0.990712    0.014981    0.527511    0.647393   -0.154447
H    -2.053048   -2.054967    0.548040   -0.579727   -0.029999    0.056975
13
* Frequency(31) 1698.0883
C     1.646810    0.227206   -0.187153   -0.000830    0.134411   -0.020224
C     1.410895   -0.984215    0.017663    0.027756   -0.159008    0.021216
N     0.254540   -1.547817    0.208363   -0.341415    0.063245    0.023066
C    -1.134263   -0.815980    0.232067    0.600534    0.298714   -0.105325
N    -0.682054    0.674004   -0.042326   -0.143540   -0.240821    0.051001
C     0.539574    1.185154   -0.233525   -0.009261    0.088563   -0.012417
O    -2.088019   -1.075725    0.365672   -0.166647   -0.099167    0.033100
O     0.584731    2.426552   -0.427740    0.015087   -0.044147    0.005249
H     2.101492   -1.819792    0.081223    0.301421    0.071626   -0.038046
H    -0.490942   -2.459246    0.410986    1.419926   -0.193934   -0.112436
H     2.617402    0.684075   -0.343109    0.109025   -0.074416    0.001211
H    -1.738925    0.972401    0.019350    0.527511    0.647393   -0.154447
H    -2.036651   -2.054119    0.546428   -0.579727   -0.029999    0.056975
13
* Frequency(31) 1698.0883
C     1.646802    0.228485   -0.187345   -0.000830    0.134411   -0.020224
C     1.411159   -0.985727    0.017865    0.027756   -0.159008    0.021216
N     0.251292   -1.547215    0.208583   -0.341415    0.063245    0.023066
C    -1.128549   -0.813138    0.231065    0.600534    0.298714   -0.105325
N    -0.683419    0.671712   -0.041841   -0.143540   -0.240821    0.051001
C     0.539486    1.185997   -0.233643   -0.009261    0.088563   -0.012417
O    -2.089604   -1.076668    0.365987   -0.166647   -0.099167    0.033100
O     0.584875    2.426132   -0.427690    0.015087   -0.044147    0.005249
H     2.104360   -1.819111    0.080861    0.301421    0.071626   -0.038046
H    -0.477432   -2.461091    0.409916    1.419926   -0.193934   -0.112436
H     2.618439    0.683367   -0.343097    0.109025   -0.074416    0.001211
H    -1.733906    0.978561    0.017880    0.527511    0.647393   -0.154447
H    -2.042167   -2.054404    0.546970   -0.579727   -0.029999    0.056975
13
* Frequency(31) 1698.0883
C     1.646763    0.234705   -0.188281   -0.000830    0.134411   -0.020224
C     1.412444   -0.993087    0.018847    0.027756   -0.159008    0.021216
N     0.235490   -1.544288    0.209650   -0.341415    0.063245    0.023066
C    -1.100756   -0.799313    0.226190    0.600534    0.298714   -0.105325
N    -0.690063    0.660567   -0.039480   -0.143540   -0.240821    0.051001
C     0.539058    1.190096   -0.234218   -0.009261    0.088563   -0.012417
O    -2.097317   -1.081258    0.367519   -0.166647   -0.099167    0.033100
O     0.585573    2.424088   -0.427447    0.015087   -0.044147    0.005249
H     2.118310   -1.815796    0.079100    0.301421    0.071626   -0.038046
H    -0.411715   -2.470066    0.404713    1.419926   -0.193934   -0.112436
H     2.623485    0.679923   -0.343041    0.109025   -0.074416    0.001211
H    -1.709492    1.008524    0.010732    0.527511    0.647393   -0.154447
H    -2.068998   -2.055793    0.549607   -0.579727   -0.029999    0.056975
13
* Frequency(31) 1698.0883
C     1.646698    0.245194   -0.189860   -0.000830    0.134411   -0.020224
C     1.414610   -1.005495    0.020503    0.027756   -0.159008    0.021216
N     0.208848   -1.539353    0.211450   -0.341415    0.063245    0.023066
C    -1.053894   -0.776003    0.217971    0.600534    0.298714   -0.105325
N    -0.701264    0.641775   -0.035500   -0.143540   -0.240821    0.051001
C     0.538335    1.197007   -0.235187   -0.009261    0.088563   -0.012417
O    -2.110321   -1.088996    0.370102   -0.166647   -0.099167    0.033100
O     0.586750    2.420643   -0.427038    0.015087   -0.044147    0.005249
H     2.141831   -1.810207    0.076131    0.301421    0.071626   -0.038046
H    -0.300913   -2.485200    0.395939    1.419926   -0.193934   -0.112436
H     2.631992    0.674116   -0.342946    0.109025   -0.074416    0.001211
H    -1.668328    1.059042   -0.001320    0.527511    0.647393   -0.154447
H    -2.114236   -2.058134    0.554053   -0.579727   -0.029999    0.056975
13
* Frequency(31) 1698.0883
C     1.646614    0.258814   -0.191909   -0.000830    0.134411   -0.020224
C     1.417422   -1.021607    0.022652    0.027756   -0.159008    0.021216
N     0.174253   -1.532944    0.213788   -0.341415    0.063245    0.023066
C    -0.993042   -0.745735    0.207298    0.600534    0.298714   -0.105325
N    -0.715809    0.617372   -0.030332   -0.143540   -0.240821    0.051001
C     0.537396    1.205981   -0.236445   -0.009261    0.088563   -0.012417
O    -2.127208   -1.099045    0.373456   -0.166647   -0.099167    0.033100
O     0.588279    2.416170   -0.426506    0.015087   -0.044147    0.005249
H     2.172374   -1.802949    0.072276    0.301421    0.071626   -0.038046
H    -0.157032   -2.504851    0.384546    1.419926   -0.193934   -0.112436
H     2.643040    0.666576   -0.342824    0.109025   -0.074416    0.001211
H    -1.614876    1.124642   -0.016970    0.527511    0.647393   -0.154447
H    -2.172979   -2.061173    0.559826   -0.579727   -0.029999    0.056975
13
* Frequency(31) 1698.0883
C     1.646520    0.274089   -0.194207   -0.000830    0.134411   -0.020224
C     1.420577   -1.039677    0.025063    0.027756   -0.159008    0.021216
N     0.135453   -1.525757    0.216409   -0.341415    0.063245    0.023066
C    -0.924794   -0.711788    0.195329    0.600534    0.298714   -0.105325
N    -0.732121    0.590004   -0.024536   -0.143540   -0.240821    0.051001
C     0.536344    1.216046   -0.237856   -0.009261    0.088563   -0.012417
O    -2.146146   -1.110315    0.377217   -0.166647   -0.099167    0.033100
O     0.589994    2.411153   -0.425909    0.015087   -0.044147    0.005249
H     2.206629   -1.794809    0.067952    0.301421    0.071626   -0.038046
H     0.004335   -2.526891    0.371768    1.419926   -0.193934   -0.112436
H     2.655430    0.658119   -0.342686    0.109025   -0.074416    0.001211
H    -1.554927    1.198215   -0.034522    0.527511    0.647393   -0.154447
H    -2.238862   -2.064583    0.566301   -0.579727   -0.029999    0.056975
