13
* (null), Energy   -1000.0000000
C     1.646520    0.274089   -0.194207    0.116056    0.056936   -0.018978
C     1.420577   -1.039677    0.025063    0.087119   -0.098722    0.006977
N     0.135453   -1.525757    0.216409   -0.003628    0.000647    0.000256
C    -0.924794   -0.711788    0.195329   -0.001364    0.000058    0.000142
N    -0.732121    0.590004   -0.024536   -0.000732   -0.000084    0.000081
C     0.536344    1.216046   -0.237856   -0.003045    0.003710   -0.000320
O    -2.146146   -1.110315    0.377217    0.000024    0.000025   -0.000013
O     0.589994    2.411153   -0.425909    0.000220   -0.000916    0.000127
H     2.206629   -1.794809    0.067952   -1.010026    0.973562   -0.055380
H     0.004335   -2.526891    0.371768    0.006157   -0.013933    0.001302
H     2.655430    0.658119   -0.342686   -1.306538   -0.500109    0.192548
H    -1.554927    1.198215   -0.034522   -0.001244   -0.000189    0.000159
H    -2.238862   -2.064583    0.566301   -0.000060    0.000004    0.000002
13
* Frequency(35) 3251.3446
C     1.659709    0.280559   -0.196364    0.116056    0.056936   -0.018978
C     1.430477   -1.050896    0.025856    0.087119   -0.098722    0.006977
N     0.135041   -1.525683    0.216438   -0.003628    0.000647    0.000256
C    -0.924949   -0.711781    0.195345   -0.001364    0.000058    0.000142
N    -0.732204    0.589995   -0.024527   -0.000732   -0.000084    0.000081
C     0.535998    1.216467   -0.237892   -0.003045    0.003710   -0.000320
O    -2.146143   -1.110312    0.377216    0.000024    0.000025   -0.000013
O     0.590019    2.411049   -0.425895    0.000220   -0.000916    0.000127
H     2.091845   -1.684169    0.061658   -1.010026    0.973562   -0.055380
H     0.005035   -2.528474    0.371916    0.006157   -0.013933    0.001302
H     2.506949    0.601284   -0.320804   -1.306538   -0.500109    0.192548
H    -1.555068    1.198194   -0.034504   -0.001244   -0.000189    0.000159
H    -2.238869   -2.064582    0.566302   -0.000060    0.000004    0.000002
13
* Frequency(35) 3251.3446
C     1.671469    0.286329   -0.198287    0.116056    0.056936   -0.018978
C     1.439305   -1.060900    0.026563    0.087119   -0.098722    0.006977
N     0.134673   -1.525618    0.216464   -0.003628    0.000647    0.000256
C    -0.925087   -0.711775    0.195359   -0.001364    0.000058    0.000142
N    -0.732279    0.589986   -0.024519   -0.000732   -0.000084    0.000081
C     0.535689    1.216843   -0.237925   -0.003045    0.003710   -0.000320
O    -2.146141   -1.110309    0.377215    0.000024    0.000025   -0.000013
O     0.590041    2.410956   -0.425882    0.000220   -0.000916    0.000127
H     1.989499   -1.585518    0.056047   -1.010026    0.973562   -0.055380
H     0.005659   -2.529886    0.372048    0.006157   -0.013933    0.001302
H     2.374558    0.550608   -0.301293   -1.306538   -0.500109    0.192548
H    -1.555194    1.198174   -0.034488   -0.001244   -0.000189    0.000159
H    -2.238875   -2.064582    0.566302   -0.000060    0.000004    0.000002
13
* Frequency(35) 3251.3446
C     1.680526    0.290771   -0.199768    0.116056    0.056936   -0.018978
C     1.446103   -1.068604    0.027108    0.087119   -0.098722    0.006977
N     0.134390   -1.525567    0.216484   -0.003628    0.000647    0.000256
C    -0.925194   -0.711770    0.195370   -0.001364    0.000058    0.000142
N    -0.732336    0.589980   -0.024513   -0.000732   -0.000084    0.000081
C     0.535452    1.217133   -0.237950   -0.003045    0.003710   -0.000320
O    -2.146139   -1.110307    0.377214    0.000024    0.000025   -0.000013
O     0.590058    2.410884   -0.425872    0.000220   -0.000916    0.000127
H     1.910683   -1.509547    0.051725   -1.010026    0.973562   -0.055380
H     0.006139   -2.530973    0.372150    0.006157   -0.013933    0.001302
H     2.272603    0.511583   -0.286268   -1.306538   -0.500109    0.192548
H    -1.555292    1.198160   -0.034476   -0.001244   -0.000189    0.000159
H    -2.238880   -2.064581    0.566302   -0.000060    0.000004    0.000002
13
* Frequency(35) 3251.3446
C     1.685897    0.293407   -0.200646    0.116056    0.056936   -0.018978
C     1.450135   -1.073173    0.027431    0.087119   -0.098722    0.006977
N     0.134222   -1.525537    0.216496   -0.003628    0.000647    0.000256
C    -0.925257   -0.711768    0.195377   -0.001364    0.000058    0.000142
N    -0.732370    0.589976   -0.024509   -0.000732   -0.000084    0.000081
C     0.535311    1.217304   -0.237964   -0.003045    0.003710   -0.000320
O    -2.146138   -1.110306    0.377213    0.000024    0.000025   -0.000013
O     0.590069    2.410842   -0.425866    0.000220   -0.000916    0.000127
H     1.863937   -1.464489    0.049162   -1.010026    0.973562   -0.055380
H     0.006424   -2.531618    0.372210    0.006157   -0.013933    0.001302
H     2.212134    0.488437   -0.277356   -1.306538   -0.500109    0.192548
H    -1.555349    1.198151   -0.034468   -0.001244   -0.000189    0.000159
H    -2.238883   -2.064581    0.566302   -0.000060    0.000004    0.000002
13
* Frequency(35) 3251.3446
C     1.687001    0.293948   -0.200827    0.116056    0.056936   -0.018978
C     1.450964   -1.074112    0.027497    0.087119   -0.098722    0.006977
N     0.134187   -1.525531    0.216498   -0.003628    0.000647    0.000256
C    -0.925270   -0.711767    0.195378   -0.001364    0.000058    0.000142
N    -0.732377    0.589975   -0.024508   -0.000732   -0.000084    0.000081
C     0.535282    1.217340   -0.237967   -0.003045    0.003710   -0.000320
O    -2.146138   -1.110306    0.377213    0.000024    0.000025   -0.000013
O     0.590071    2.410833   -0.425865    0.000220   -0.000916    0.000127
H     1.854327   -1.455226    0.048635   -1.010026    0.973562   -0.055380
H     0.006483   -2.531751    0.372222    0.006157   -0.013933    0.001302
H     2.199703    0.483678   -0.275524   -1.306538   -0.500109    0.192548
H    -1.555361    1.198149   -0.034467   -0.001244   -0.000189    0.000159
H    -2.238883   -2.064581    0.566302   -0.000060    0.000004    0.000002
13
* Frequency(35) 3251.3446
C     1.683719    0.292338   -0.200290    0.116056    0.056936   -0.018978
C     1.448500   -1.071320    0.027300    0.087119   -0.098722    0.006977
N     0.134290   -1.525549    0.216491   -0.003628    0.000647    0.000256
C    -0.925231   -0.711769    0.195374   -0.001364    0.000058    0.000142
N    -0.732356    0.589977   -0.024510   -0.000732   -0.000084    0.000081
C     0.535368    1.217235   -0.237958   -0.003045    0.003710   -0.000320
O    -2.146139   -1.110306    0.377213    0.000024    0.000025   -0.000013
O     0.590064    2.410859   -0.425869    0.000220   -0.000916    0.000127
H     1.882895   -1.482762    0.050201   -1.010026    0.973562   -0.055380
H     0.006309   -2.531357    0.372185    0.006157   -0.013933    0.001302
H     2.236657    0.497823   -0.280970   -1.306538   -0.500109    0.192548
H    -1.555326    1.198154   -0.034471   -0.001244   -0.000189    0.000159
H    -2.238882   -2.064581    0.566302   -0.000060    0.000004    0.000002
13
* Frequency(35) 3251.3446
C     1.676405    0.288750   -0.199094    0.116056    0.056936   -0.018978
C     1.443010   -1.065098    0.026860    0.087119   -0.098722    0.006977
N     0.134519   -1.525590    0.216475   -0.003628    0.000647    0.000256
C    -0.925145   -0.711772    0.195365   -0.001364    0.000058    0.000142
N    -0.732310    0.589983   -0.024515   -0.000732   -0.000084    0.000081
C     0.535560    1.217001   -0.237938   -0.003045    0.003710   -0.000320
O    -2.146140   -1.110308    0.377214    0.000024    0.000025   -0.000013
O     0.590051    2.410917   -0.425877    0.000220   -0.000916    0.000127
H     1.946544   -1.544114    0.053691   -1.010026    0.973562   -0.055380
H     0.005921   -2.530479    0.372103    0.006157   -0.013933    0.001302
H     2.318992    0.529339   -0.293104   -1.306538   -0.500109    0.192548
H    -1.555247    1.198166   -0.034481   -0.001244   -0.000189    0.000159
H    -2.238878   -2.064582    0.566302   -0.000060    0.000004    0.000002
13
* Frequency(35) 3251.3446
C     1.665853    0.283573   -0.197369    0.116056    0.056936   -0.018978
C     1.435089   -1.056122    0.026226    0.087119   -0.098722    0.006977
N     0.134849   -1.525649    0.216452   -0.003628    0.000647    0.000256
C    -0.925021   -0.711778    0.195352   -0.001364    0.000058    0.000142
N    -0.732243    0.589990   -0.024523   -0.000732   -0.000084    0.000081
C     0.535837    1.216664   -0.237909   -0.003045    0.003710   -0.000320
O    -2.146142   -1.110310    0.377215    0.000024    0.000025   -0.000013
O     0.590030    2.411000   -0.425888    0.000220   -0.000916    0.000127
H     2.038377   -1.632632    0.058727   -1.010026    0.973562   -0.055380
H     0.005361   -2.529212    0.371985    0.006157   -0.013933    0.001302
H     2.437785    0.574810   -0.310611   -1.306538   -0.500109    0.192548
H    -1.555134    1.198184   -0.034496   -0.001244   -0.000189    0.000159
H    -2.238872   -2.064582    0.566302   -0.000060    0.000004    0.000002
13
* Frequency(35) 3251.3446
C     1.653206    0.277369   -0.195300    0.116056    0.056936   -0.018978
C     1.425595   -1.045364    0.025465    0.087119   -0.098722    0.006977
N     0.135244   -1.525719    0.216424   -0.003628    0.000647    0.000256
C    -0.924873   -0.711784    0.195337   -0.001364    0.000058    0.000142
N    -0.732163    0.589999   -0.024532   -0.000732   -0.000084    0.000081
C     0.536169    1.216259   -0.237874   -0.003045    0.003710   -0.000320
O    -2.146145   -1.110313    0.377217    0.000024    0.000025   -0.000013
O     0.590006    2.411100   -0.425902    0.000220   -0.000916    0.000127
H     2.148444   -1.738724    0.064761   -1.010026    0.973562   -0.055380
H     0.004690   -2.527693    0.371843    0.006157   -0.013933    0.001302
H     2.580163    0.629308   -0.331594   -1.306538   -0.500109    0.192548
H    -1.554999    1.198204   -0.034513   -0.001244   -0.000189    0.000159
H    -2.238866   -2.064582    0.566302   -0.000060    0.000004    0.000002
13
* Frequency(35) 3251.3446
C     1.639834    0.270809   -0.193114    0.116056    0.056936   -0.018978
C     1.415558   -1.033990    0.024662    0.087119   -0.098722    0.006977
N     0.135662   -1.525794    0.216394   -0.003628    0.000647    0.000256
C    -0.924715   -0.711791    0.195321   -0.001364    0.000058    0.000142
N    -0.732079    0.590009   -0.024541   -0.000732   -0.000084    0.000081
C     0.536519    1.215832   -0.237838   -0.003045    0.003710   -0.000320
O    -2.146147   -1.110316    0.377218    0.000024    0.000025   -0.000013
O     0.589981    2.411206   -0.425917    0.000220   -0.000916    0.000127
H     2.264815   -1.850894    0.071142   -1.010026    0.973562   -0.055380
H     0.003981   -2.526088    0.371693    0.006157   -0.013933    0.001302
H     2.730697    0.686929   -0.353778   -1.306538   -0.500109    0.192548
H    -1.554855    1.198226   -0.034531   -0.001244   -0.000189    0.000159
H    -2.238859   -2.064583    0.566301   -0.000060    0.000004    0.000002
13
* Frequency(35) 3251.3446
C     1.627187    0.264604   -0.191046    0.116056    0.056936   -0.018978
C     1.406064   -1.023232    0.023901    0.087119   -0.098722    0.006977
N     0.136057   -1.525864    0.216366   -0.003628    0.000647    0.000256
C    -0.924567   -0.711797    0.195305   -0.001364    0.000058    0.000142
N    -0.731999    0.590018   -0.024550   -0.000732   -0.000084    0.000081
C     0.536851    1.215428   -0.237803   -0.003045    0.003710   -0.000320
O    -2.146150   -1.110319    0.377220    0.000024    0.000025   -0.000013
O     0.589957    2.411305   -0.425930    0.000220   -0.000916    0.000127
H     2.374881   -1.956986    0.077177   -1.010026    0.973562   -0.055380
H     0.003310   -2.524570    0.371551    0.006157   -0.013933    0.001302
H     2.873075    0.741428   -0.374761   -1.306538   -0.500109    0.192548
H    -1.554720    1.198246   -0.034549   -0.001244   -0.000189    0.000159
H    -2.238852   -2.064583    0.566301   -0.000060    0.000004    0.000002
13
* Frequency(35) 3251.3446
C     1.616635    0.259428   -0.189320    0.116056    0.056936   -0.018978
C     1.398143   -1.014256    0.023267    0.087119   -0.098722    0.006977
N     0.136387   -1.525923    0.216343   -0.003628    0.000647    0.000256
C    -0.924443   -0.711803    0.195292   -0.001364    0.000058    0.000142
N    -0.731932    0.590026   -0.024557   -0.000732   -0.000084    0.000081
C     0.537128    1.215090   -0.237774   -0.003045    0.003710   -0.000320
O    -2.146152   -1.110321    0.377221    0.000024    0.000025   -0.000013
O     0.589937    2.411389   -0.425942    0.000220   -0.000916    0.000127
H     2.466714   -2.045504    0.082212   -1.010026    0.973562   -0.055380
H     0.002750   -2.523303    0.371433    0.006157   -0.013933    0.001302
H     2.991868    0.786898   -0.392268   -1.306538   -0.500109    0.192548
H    -1.554607    1.198264   -0.034563   -0.001244   -0.000189    0.000159
H    -2.238847   -2.064584    0.566301   -0.000060    0.000004    0.000002
13
* Frequency(35) 3251.3446
C     1.609322    0.255840   -0.188124    0.116056    0.056936   -0.018978
C     1.392653   -1.008035    0.022827    0.087119   -0.098722    0.006977
N     0.136616   -1.525964    0.216327   -0.003628    0.000647    0.000256
C    -0.924357   -0.711806    0.195283   -0.001364    0.000058    0.000142
N    -0.731886    0.590031   -0.024562   -0.000732   -0.000084    0.000081
C     0.537320    1.214857   -0.237754   -0.003045    0.003710   -0.000320
O    -2.146154   -1.110323    0.377222    0.000024    0.000025   -0.000013
O     0.589923    2.411447   -0.425950    0.000220   -0.000916    0.000127
H     2.530364   -2.106856    0.085702   -1.010026    0.973562   -0.055380
H     0.002362   -2.522425    0.371351    0.006157   -0.013933    0.001302
H     3.074202    0.818414   -0.404402   -1.306538   -0.500109    0.192548
H    -1.554528    1.198276   -0.034573   -0.001244   -0.000189    0.000159
H    -2.238843   -2.064584    0.566301   -0.000060    0.000004    0.000002
13
* Frequency(35) 3251.3446
C     1.606039    0.254229   -0.187587    0.116056    0.056936   -0.018978
C     1.390189   -1.005242    0.022630    0.087119   -0.098722    0.006977
N     0.136719   -1.525982    0.216319   -0.003628    0.000647    0.000256
C    -0.924318   -0.711808    0.195279   -0.001364    0.000058    0.000142
N    -0.731866    0.590034   -0.024565   -0.000732   -0.000084    0.000081
C     0.537406    1.214752   -0.237745   -0.003045    0.003710   -0.000320
O    -2.146154   -1.110323    0.377222    0.000024    0.000025   -0.000013
O     0.589917    2.411472   -0.425953    0.000220   -0.000916    0.000127
H     2.558931   -2.134392    0.087269   -1.010026    0.973562   -0.055380
H     0.002188   -2.522031    0.371314    0.006157   -0.013933    0.001302
H     3.111156    0.832559   -0.409848   -1.306538   -0.500109    0.192548
H    -1.554493    1.198281   -0.034578   -0.001244   -0.000189    0.000159
H    -2.238842   -2.064584    0.566301   -0.000060    0.000004    0.000002
13
* Frequency(35) 3251.3446
C     1.607143    0.254771   -0.187768    0.116056    0.056936   -0.018978
C     1.391018   -1.006182    0.022696    0.087119   -0.098722    0.006977
N     0.136684   -1.525976    0.216322   -0.003628    0.000647    0.000256
C    -0.924331   -0.711807    0.195281   -0.001364    0.000058    0.000142
N    -0.731873    0.590033   -0.024564   -0.000732   -0.000084    0.000081
C     0.537377    1.214787   -0.237748   -0.003045    0.003710   -0.000320
O    -2.146154   -1.110323    0.377222    0.000024    0.000025   -0.000013
O     0.589919    2.411464   -0.425952    0.000220   -0.000916    0.000127
H     2.549321   -2.125129    0.086742   -1.010026    0.973562   -0.055380
H     0.002246   -2.522163    0.371326    0.006157   -0.013933    0.001302
H     3.098725    0.827801   -0.408016   -1.306538   -0.500109    0.192548
H    -1.554505    1.198279   -0.034576   -0.001244   -0.000189    0.000159
H    -2.238842   -2.064584    0.566301   -0.000060    0.000004    0.000002
13
* Frequency(35) 3251.3446
C     1.612515    0.257406   -0.188646    0.116056    0.056936   -0.018978
C     1.395050   -1.010751    0.023019    0.087119   -0.098722    0.006977
N     0.136516   -1.525946    0.216334   -0.003628    0.000647    0.000256
C    -0.924394   -0.711805    0.195287   -0.001364    0.000058    0.000142
N    -0.731906    0.590029   -0.024560   -0.000732   -0.000084    0.000081
C     0.537236    1.214959   -0.237762   -0.003045    0.003710   -0.000320
O    -2.146153   -1.110322    0.377221    0.000024    0.000025   -0.000013
O     0.589929    2.411421   -0.425946    0.000220   -0.000916    0.000127
H     2.502575   -2.080071    0.084179   -1.010026    0.973562   -0.055380
H     0.002531   -2.522808    0.371386    0.006157   -0.013933    0.001302
H     3.038256    0.804655   -0.399104   -1.306538   -0.500109    0.192548
H    -1.554562    1.198270   -0.034569   -0.001244   -0.000189    0.000159
H    -2.238845   -2.064584    0.566301   -0.000060    0.000004    0.000002
13
* Frequency(35) 3251.3446
C     1.621571    0.261849   -0.190127    0.116056    0.056936   -0.018978
C     1.401848   -1.018454    0.023564    0.087119   -0.098722    0.006977
N     0.136233   -1.525896    0.216354   -0.003628    0.000647    0.000256
C    -0.924501   -0.711800    0.195298   -0.001364    0.000058    0.000142
N    -0.731964    0.590022   -0.024554   -0.000732   -0.000084    0.000081
C     0.536999    1.215248   -0.237787   -0.003045    0.003710   -0.000320
O    -2.146151   -1.110320    0.377220    0.000024    0.000025   -0.000013
O     0.589946    2.411350   -0.425937    0.000220   -0.000916    0.000127
H     2.423759   -2.004100    0.079857   -1.010026    0.973562   -0.055380
H     0.003012   -2.523895    0.371488    0.006157   -0.013933    0.001302
H     2.936302    0.765629   -0.384079   -1.306538   -0.500109    0.192548
H    -1.554659    1.198256   -0.034557   -0.001244   -0.000189    0.000159
H    -2.238850   -2.064584    0.566301   -0.000060    0.000004    0.000002
13
* Frequency(35) 3251.3446
C     1.633331    0.267618   -0.192050    0.116056    0.056936   -0.018978
C     1.410676   -1.028458    0.024271    0.087119   -0.098722    0.006977
N     0.135865   -1.525830    0.216380   -0.003628    0.000647    0.000256
C    -0.924639   -0.711794    0.195313   -0.001364    0.000058    0.000142
N    -0.732038    0.590014   -0.024546   -0.000732   -0.000084    0.000081
C     0.536690    1.215624   -0.237820   -0.003045    0.003710   -0.000320
O    -2.146149   -1.110318    0.377219    0.000024    0.000025   -0.000013
O     0.589969    2.411257   -0.425924    0.000220   -0.000916    0.000127
H     2.321414   -1.905449    0.074246   -1.010026    0.973562   -0.055380
H     0.003636   -2.525307    0.371620    0.006157   -0.013933    0.001302
H     2.803911    0.714953   -0.364568   -1.306538   -0.500109    0.192548
H    -1.554786    1.198236   -0.034540   -0.001244   -0.000189    0.000159
H    -2.238856   -2.064583    0.566301   -0.000060    0.000004    0.000002
13
* Frequency(35) 3251.3446
C     1.646520    0.274089   -0.194207    0.116056    0.056936   -0.018978
C     1.420577   -1.039677    0.025063    0.087119   -0.098722    0.006977
N     0.135453   -1.525757    0.216409   -0.003628    0.000647    0.000256
C    -0.924794   -0.711788    0.195329   -0.001364    0.000058    0.000142
N    -0.732121    0.590004   -0.024536   -0.000732   -0.000084    0.000081
C     0.536344    1.216046   -0.237856   -0.003045    0.003710   -0.000320
O    -2.146146   -1.110315    0.377217    0.000024    0.000025   -0.000013
O     0.589994    2.411153   -0.425909    0.000220   -0.000916    0.000127
H     2.206629   -1.794809    0.067952   -1.010026    0.973562   -0.055380
H     0.004335   -2.526891    0.371768    0.006157   -0.013933    0.001302
H     2.655430    0.658119   -0.342686   -1.306538   -0.500109    0.192548
H    -1.554927    1.198215   -0.034522   -0.001244   -0.000189    0.000159
H    -2.238862   -2.064583    0.566301   -0.000060    0.000004    0.000002
