13
* (null), Energy   -1000.0000000
C     1.393781    0.533776   -0.062691    0.007724    0.005172   -0.001489
C     1.168148   -0.779758    0.160441   -0.021577    0.012093    0.000186
N    -0.116197   -1.262094    0.357179   -0.010084    0.009293   -0.000681
C    -1.173993   -0.446979    0.334824   -0.000525   -0.101557    0.015622
N    -0.982141    0.854104    0.116669    0.026931    0.154875   -0.026247
C     0.285100    1.476626   -0.101181   -0.032056   -0.021979    0.006418
O    -2.392774   -0.849779    0.515859    0.140617   -0.110694    0.003260
O     0.338858    2.672655   -0.290012   -0.007557    0.001036    0.000647
H     1.953348   -1.535224    0.201378   -0.087071   -0.051119    0.016422
H    -0.254993   -2.258813    0.525028   -0.201503    0.041244    0.014034
H     2.401547    0.916834   -0.219517   -0.008242    0.046147   -0.006251
H    -1.805505    1.460126    0.102516    0.339146    0.580918   -0.124051
H    -2.476740   -1.809302    0.672136   -1.835072    0.108345    0.164922
13
* Frequency(24) 1163.2053
C     1.394659    0.534364   -0.062860    0.007724    0.005172   -0.001489
C     1.165696   -0.778384    0.160462   -0.021577    0.012093    0.000186
N    -0.117343   -1.261038    0.357102   -0.010084    0.009293   -0.000681
C    -1.174053   -0.458520    0.336600   -0.000525   -0.101557    0.015622
N    -0.979080    0.871704    0.113686    0.026931    0.154875   -0.026247
C     0.281457    1.474128   -0.100452   -0.032056   -0.021979    0.006418
O    -2.376794   -0.862359    0.516230    0.140617   -0.110694    0.003260
O     0.337999    2.672772   -0.289938   -0.007557    0.001036    0.000647
H     1.943453   -1.541033    0.203244   -0.087071   -0.051119    0.016422
H    -0.277893   -2.254126    0.526623   -0.201503    0.041244    0.014034
H     2.400610    0.922078   -0.220227   -0.008242    0.046147   -0.006251
H    -1.766963    1.526145    0.088418    0.339146    0.580918   -0.124051
H    -2.685286   -1.796989    0.690879   -1.835072    0.108345    0.164922
13
* Frequency(24) 1163.2053
C     1.395442    0.534888   -0.063011    0.007724    0.005172   -0.001489
C     1.163510   -0.777159    0.160481   -0.021577    0.012093    0.000186
N    -0.118365   -1.260096    0.357033   -0.010084    0.009293   -0.000681
C    -1.174106   -0.468811    0.338182   -0.000525   -0.101557    0.015622
N    -0.976351    0.887398    0.111027    0.026931    0.154875   -0.026247
C     0.278209    1.471901   -0.099802   -0.032056   -0.021979    0.006418
O    -2.362545   -0.873576    0.516560    0.140617   -0.110694    0.003260
O     0.337234    2.672877   -0.289873   -0.007557    0.001036    0.000647
H     1.934630   -1.546213    0.204908   -0.087071   -0.051119    0.016422
H    -0.298311   -2.249947    0.528045   -0.201503    0.041244    0.014034
H     2.399775    0.926754   -0.220860   -0.008242    0.046147   -0.006251
H    -1.732597    1.585009    0.075848    0.339146    0.580918   -0.124051
H    -2.871234   -1.786010    0.707590   -1.835072    0.108345    0.164922
13
* Frequency(24) 1163.2053
C     1.396045    0.535291   -0.063127    0.007724    0.005172   -0.001489
C     1.161826   -0.776215    0.160496   -0.021577    0.012093    0.000186
N    -0.119152   -1.259371    0.356980   -0.010084    0.009293   -0.000681
C    -1.174147   -0.476736    0.339402   -0.000525   -0.101557    0.015622
N    -0.974250    0.899483    0.108978    0.026931    0.154875   -0.026247
C     0.275707    1.470186   -0.099301   -0.032056   -0.021979    0.006418
O    -2.351572   -0.882214    0.516814    0.140617   -0.110694    0.003260
O     0.336644    2.672958   -0.289822   -0.007557    0.001036    0.000647
H     1.927836   -1.550202    0.206189   -0.087071   -0.051119    0.016422
H    -0.314035   -2.246729    0.529140   -0.201503    0.041244    0.014034
H     2.399132    0.930355   -0.221348   -0.008242    0.046147   -0.006251
H    -1.706132    1.630340    0.066168    0.339146    0.580918   -0.124051
H    -3.014431   -1.777556    0.720459   -1.835072    0.108345    0.164922
13
* Frequency(24) 1163.2053
C     1.396402    0.535531   -0.063196    0.007724    0.005172   -0.001489
C     1.160828   -0.775655    0.160504   -0.021577    0.012093    0.000186
N    -0.119618   -1.258941    0.356948   -0.010084    0.009293   -0.000681
C    -1.174171   -0.481436    0.340125   -0.000525   -0.101557    0.015622
N    -0.973003    0.906651    0.107764    0.026931    0.154875   -0.026247
C     0.274224    1.469168   -0.099004   -0.032056   -0.021979    0.006418
O    -2.345064   -0.887337    0.516965    0.140617   -0.110694    0.003260
O     0.336294    2.673006   -0.289792   -0.007557    0.001036    0.000647
H     1.923806   -1.552568    0.206949   -0.087071   -0.051119    0.016422
H    -0.323361   -2.244820    0.529790   -0.201503    0.041244    0.014034
H     2.398750    0.932491   -0.221637   -0.008242    0.046147   -0.006251
H    -1.690436    1.657226    0.060427    0.339146    0.580918   -0.124051
H    -3.099362   -1.772541    0.728092   -1.835072    0.108345    0.164922
13
* Frequency(24) 1163.2053
C     1.396476    0.535580   -0.063210    0.007724    0.005172   -0.001489
C     1.160622   -0.775540    0.160506   -0.021577    0.012093    0.000186
N    -0.119714   -1.258852    0.356942   -0.010084    0.009293   -0.000681
C    -1.174176   -0.482403    0.340273   -0.000525   -0.101557    0.015622
N    -0.972747    0.908125    0.107514    0.026931    0.154875   -0.026247
C     0.273919    1.468959   -0.098943   -0.032056   -0.021979    0.006418
O    -2.343726   -0.888390    0.516996    0.140617   -0.110694    0.003260
O     0.336222    2.673016   -0.289786   -0.007557    0.001036    0.000647
H     1.922977   -1.553054    0.207106   -0.087071   -0.051119    0.016422
H    -0.325278   -2.244427    0.529923   -0.201503    0.041244    0.014034
H     2.398672    0.932930   -0.221697   -0.008242    0.046147   -0.006251
H    -1.687209    1.662753    0.059246    0.339146    0.580918   -0.124051
H    -3.116822   -1.771510    0.729662   -1.835072    0.108345    0.164922
13
* Frequency(24) 1163.2053
C     1.396257    0.535434   -0.063168    0.007724    0.005172   -0.001489
C     1.161233   -0.775882    0.160501   -0.021577    0.012093    0.000186
N    -0.119429   -1.259115    0.356961   -0.010084    0.009293   -0.000681
C    -1.174161   -0.479530    0.339831   -0.000525   -0.101557    0.015622
N    -0.973509    0.903744    0.108256    0.026931    0.154875   -0.026247
C     0.274826    1.469581   -0.099124   -0.032056   -0.021979    0.006418
O    -2.347704   -0.885259    0.516904    0.140617   -0.110694    0.003260
O     0.336436    2.672987   -0.289805   -0.007557    0.001036    0.000647
H     1.925440   -1.551609    0.206641   -0.087071   -0.051119    0.016422
H    -0.319579   -2.245594    0.529526   -0.201503    0.041244    0.014034
H     2.398905    0.931625   -0.221520   -0.008242    0.046147   -0.006251
H    -1.696802    1.646323    0.062755    0.339146    0.580918   -0.124051
H    -3.064919   -1.774575    0.724997   -1.835072    0.108345    0.164922
13
* Frequency(24) 1163.2053
C     1.395770    0.535108   -0.063074    0.007724    0.005172   -0.001489
C     1.162592   -0.776645    0.160489   -0.021577    0.012093    0.000186
N    -0.118794   -1.259701    0.357004   -0.010084    0.009293   -0.000681
C    -1.174128   -0.473130    0.338847   -0.000525   -0.101557    0.015622
N    -0.975206    0.893984    0.109910    0.026931    0.154875   -0.026247
C     0.276846    1.470966   -0.099529   -0.032056   -0.021979    0.006418
O    -2.356565   -0.878283    0.516698    0.140617   -0.110694    0.003260
O     0.336912    2.672921   -0.289845   -0.007557    0.001036    0.000647
H     1.930927   -1.548387    0.205606   -0.087071   -0.051119    0.016422
H    -0.306881   -2.248193    0.528642   -0.201503    0.041244    0.014034
H     2.399424    0.928717   -0.221126   -0.008242    0.046147   -0.006251
H    -1.718174    1.609715    0.070572    0.339146    0.580918   -0.124051
H    -2.949277   -1.781402    0.714604   -1.835072    0.108345    0.164922
13
* Frequency(24) 1163.2053
C     1.395068    0.534637   -0.062939    0.007724    0.005172   -0.001489
C     1.164554   -0.777744    0.160472   -0.021577    0.012093    0.000186
N    -0.117877   -1.260546    0.357066   -0.010084    0.009293   -0.000681
C    -1.174080   -0.463897    0.337426   -0.000525   -0.101557    0.015622
N    -0.977655    0.879903    0.112297    0.026931    0.154875   -0.026247
C     0.279760    1.472964   -0.100112   -0.032056   -0.021979    0.006418
O    -2.369350   -0.868219    0.516402    0.140617   -0.110694    0.003260
O     0.337599    2.672827   -0.289904   -0.007557    0.001036    0.000647
H     1.938844   -1.543739    0.204113   -0.087071   -0.051119    0.016422
H    -0.288560   -2.251943    0.527366   -0.201503    0.041244    0.014034
H     2.400174    0.924521   -0.220558   -0.008242    0.046147   -0.006251
H    -1.749009    1.556897    0.081851    0.339146    0.580918   -0.124051
H    -2.782429   -1.791253    0.699609   -1.835072    0.108345    0.164922
13
* Frequency(24) 1163.2053
C     1.394226    0.534074   -0.062776    0.007724    0.005172   -0.001489
C     1.166905   -0.779062    0.160452   -0.021577    0.012093    0.000186
N    -0.116778   -1.261559    0.357140   -0.010084    0.009293   -0.000681
C    -1.174023   -0.452829    0.335724   -0.000525   -0.101557    0.015622
N    -0.980589    0.863026    0.115157    0.026931    0.154875   -0.026247
C     0.283253    1.475360   -0.100812   -0.032056   -0.021979    0.006418
O    -2.384674   -0.856156    0.516047    0.140617   -0.110694    0.003260
O     0.338423    2.672714   -0.289975   -0.007557    0.001036    0.000647
H     1.948332   -1.538169    0.202324   -0.087071   -0.051119    0.016422
H    -0.266601   -2.256437    0.525837   -0.201503    0.041244    0.014034
H     2.401072    0.919492   -0.219877   -0.008242    0.046147   -0.006251
H    -1.785967    1.493592    0.095369    0.339146    0.580918   -0.124051
H    -2.582455   -1.803060    0.681637   -1.835072    0.108345    0.164922
13
* Frequency(24) 1163.2053
C     1.393336    0.533478   -0.062605    0.007724    0.005172   -0.001489
C     1.169391   -0.780455    0.160430   -0.021577    0.012093    0.000186
N    -0.115616   -1.262629    0.357219   -0.010084    0.009293   -0.000681
C    -1.173963   -0.441128    0.333924   -0.000525   -0.101557    0.015622
N    -0.983692    0.845182    0.118181    0.026931    0.154875   -0.026247
C     0.286947    1.477892   -0.101551   -0.032056   -0.021979    0.006418
O    -2.400875   -0.843402    0.515671    0.140617   -0.110694    0.003260
O     0.339294    2.672595   -0.290049   -0.007557    0.001036    0.000647
H     1.958364   -1.532279    0.200432   -0.087071   -0.051119    0.016422
H    -0.243385   -2.261189    0.524220   -0.201503    0.041244    0.014034
H     2.402021    0.914175   -0.219156   -0.008242    0.046147   -0.006251
H    -1.825042    1.426661    0.109662    0.339146    0.580918   -0.124051
H    -2.371025   -1.815543    0.662635   -1.835072    0.108345    0.164922
13
* Frequency(24) 1163.2053
C     1.392495    0.532914   -0.062442    0.007724    0.005172   -0.001489
C     1.171743   -0.781773    0.160410   -0.021577    0.012093    0.000186
N    -0.114517   -1.263642    0.357293   -0.010084    0.009293   -0.000681
C    -1.173905   -0.430061    0.332222   -0.000525   -0.101557    0.015622
N    -0.986627    0.828304    0.121041    0.026931    0.154875   -0.026247
C     0.290440    1.480287   -0.102251   -0.032056   -0.021979    0.006418
O    -2.416198   -0.831340    0.515316    0.140617   -0.110694    0.003260
O     0.340117    2.672482   -0.290120   -0.007557    0.001036    0.000647
H     1.967853   -1.526708    0.198642   -0.087071   -0.051119    0.016422
H    -0.221427   -2.265684    0.522690   -0.201503    0.041244    0.014034
H     2.402919    0.909146   -0.218475   -0.008242    0.046147   -0.006251
H    -1.862000    1.363356    0.123180    0.339146    0.580918   -0.124051
H    -2.171051   -1.827350    0.644663   -1.835072    0.108345    0.164922
13
* Frequency(24) 1163.2053
C     1.391792    0.532444   -0.062307    0.007724    0.005172   -0.001489
C     1.173704   -0.782872    0.160393   -0.021577    0.012093    0.000186
N    -0.113600   -1.264487    0.357355   -0.010084    0.009293   -0.000681
C    -1.173858   -0.420828    0.330801   -0.000525   -0.101557    0.015622
N    -0.989076    0.814223    0.123427    0.026931    0.154875   -0.026247
C     0.293355    1.482285   -0.102834   -0.032056   -0.021979    0.006418
O    -2.428984   -0.821275    0.515020    0.140617   -0.110694    0.003260
O     0.340804    2.672388   -0.290179   -0.007557    0.001036    0.000647
H     1.975769   -1.522061    0.197149   -0.087071   -0.051119    0.016422
H    -0.203106   -2.269434    0.521414   -0.201503    0.041244    0.014034
H     2.403669    0.904950   -0.217907   -0.008242    0.046147   -0.006251
H    -1.892836    1.310538    0.134459    0.339146    0.580918   -0.124051
H    -2.004203   -1.837201    0.629668   -1.835072    0.108345    0.164922
13
* Frequency(24) 1163.2053
C     1.391306    0.532118   -0.062213    0.007724    0.005172   -0.001489
C     1.175064   -0.783635    0.160381   -0.021577    0.012093    0.000186
N    -0.112965   -1.265072    0.357398   -0.010084    0.009293   -0.000681
C    -1.173825   -0.414428    0.329817   -0.000525   -0.101557    0.015622
N    -0.990773    0.804463    0.125081    0.026931    0.154875   -0.026247
C     0.295375    1.483670   -0.103239   -0.032056   -0.021979    0.006418
O    -2.437845   -0.814300    0.514814    0.140617   -0.110694    0.003260
O     0.341281    2.672322   -0.290219   -0.007557    0.001036    0.000647
H     1.981256   -1.518839    0.196114   -0.087071   -0.051119    0.016422
H    -0.190407   -2.272033    0.520530   -0.201503    0.041244    0.014034
H     2.404188    0.902042   -0.217513   -0.008242    0.046147   -0.006251
H    -1.914208    1.273930    0.142277    0.339146    0.580918   -0.124051
H    -1.888561   -1.844028    0.619275   -1.835072    0.108345    0.164922
13
* Frequency(24) 1163.2053
C     1.391087    0.531972   -0.062171    0.007724    0.005172   -0.001489
C     1.175674   -0.783977    0.160376   -0.021577    0.012093    0.000186
N    -0.112679   -1.265335    0.357417   -0.010084    0.009293   -0.000681
C    -1.173810   -0.411555    0.329375   -0.000525   -0.101557    0.015622
N    -0.991535    0.800083    0.125824    0.026931    0.154875   -0.026247
C     0.296281    1.484292   -0.103420   -0.032056   -0.021979    0.006418
O    -2.441822   -0.811169    0.514722    0.140617   -0.110694    0.003260
O     0.341494    2.672293   -0.290238   -0.007557    0.001036    0.000647
H     1.983719   -1.517393    0.195650   -0.087071   -0.051119    0.016422
H    -0.184708   -2.273199    0.520133   -0.201503    0.041244    0.014034
H     2.404421    0.900737   -0.217336   -0.008242    0.046147   -0.006251
H    -1.923800    1.257499    0.145785    0.339146    0.580918   -0.124051
H    -1.836658   -1.847093    0.614611   -1.835072    0.108345    0.164922
13
* Frequency(24) 1163.2053
C     1.391161    0.532021   -0.062185    0.007724    0.005172   -0.001489
C     1.175469   -0.783862    0.160378   -0.021577    0.012093    0.000186
N    -0.112775   -1.265247    0.357411   -0.010084    0.009293   -0.000681
C    -1.173815   -0.412522    0.329524   -0.000525   -0.101557    0.015622
N    -0.991278    0.801556    0.125574    0.026931    0.154875   -0.026247
C     0.295976    1.484083   -0.103359   -0.032056   -0.021979    0.006418
O    -2.440484   -0.812222    0.514753    0.140617   -0.110694    0.003260
O     0.341422    2.672303   -0.290232   -0.007557    0.001036    0.000647
H     1.982891   -1.517880    0.195806   -0.087071   -0.051119    0.016422
H    -0.186625   -2.272807    0.520267   -0.201503    0.041244    0.014034
H     2.404343    0.901176   -0.217396   -0.008242    0.046147   -0.006251
H    -1.920574    1.263027    0.144605    0.339146    0.580918   -0.124051
H    -1.854118   -1.846062    0.616180   -1.835072    0.108345    0.164922
13
* Frequency(24) 1163.2053
C     1.391518    0.532260   -0.062254    0.007724    0.005172   -0.001489
C     1.174470   -0.783302    0.160387   -0.021577    0.012093    0.000186
N    -0.113242   -1.264817    0.357379   -0.010084    0.009293   -0.000681
C    -1.173839   -0.417222    0.330247   -0.000525   -0.101557    0.015622
N    -0.990032    0.808724    0.124359    0.026931    0.154875   -0.026247
C     0.294493    1.483066   -0.103062   -0.032056   -0.021979    0.006418
O    -2.433976   -0.817345    0.514904    0.140617   -0.110694    0.003260
O     0.341073    2.672351   -0.290202   -0.007557    0.001036    0.000647
H     1.978861   -1.520246    0.196566   -0.087071   -0.051119    0.016422
H    -0.195951   -2.270898    0.520916   -0.201503    0.041244    0.014034
H     2.403961    0.903312   -0.217685   -0.008242    0.046147   -0.006251
H    -1.904877    1.289913    0.138864    0.339146    0.580918   -0.124051
H    -1.939049   -1.841048    0.623813   -1.835072    0.108345    0.164922
13
* Frequency(24) 1163.2053
C     1.392121    0.532664   -0.062370    0.007724    0.005172   -0.001489
C     1.172787   -0.782358    0.160401   -0.021577    0.012093    0.000186
N    -0.114029   -1.264092    0.357326   -0.010084    0.009293   -0.000681
C    -1.173880   -0.425147    0.331466   -0.000525   -0.101557    0.015622
N    -0.987930    0.820810    0.122311    0.026931    0.154875   -0.026247
C     0.291991    1.481351   -0.102561   -0.032056   -0.021979    0.006418
O    -2.423003   -0.825983    0.515158    0.140617   -0.110694    0.003260
O     0.340483    2.672432   -0.290151   -0.007557    0.001036    0.000647
H     1.972066   -1.524235    0.197848   -0.087071   -0.051119    0.016422
H    -0.211675   -2.267680    0.522011   -0.201503    0.041244    0.014034
H     2.403318    0.906913   -0.218173   -0.008242    0.046147   -0.006251
H    -1.878413    1.335244    0.129184    0.339146    0.580918   -0.124051
H    -2.082246   -1.832593    0.636682   -1.835072    0.108345    0.164922
13
* Frequency(24) 1163.2053
C     1.392904    0.533188   -0.062521    0.007724    0.005172   -0.001489
C     1.170600   -0.781133    0.160420   -0.021577    0.012093    0.000186
N    -0.115051   -1.263150    0.357257   -0.010084    0.009293   -0.000681
C    -1.173933   -0.435438    0.333049   -0.000525   -0.101557    0.015622
N    -0.985201    0.836503    0.119652    0.026931    0.154875   -0.026247
C     0.288743    1.479124   -0.101911   -0.032056   -0.021979    0.006418
O    -2.408755   -0.837200    0.515489    0.140617   -0.110694    0.003260
O     0.339717    2.672537   -0.290086   -0.007557    0.001036    0.000647
H     1.963243   -1.529414    0.199512   -0.087071   -0.051119    0.016422
H    -0.232094   -2.263501    0.523433   -0.201503    0.041244    0.014034
H     2.402483    0.911589   -0.218806   -0.008242    0.046147   -0.006251
H    -1.844047    1.394108    0.116614    0.339146    0.580918   -0.124051
H    -2.268193   -1.821614    0.653394   -1.835072    0.108345    0.164922
13
* Frequency(24) 1163.2053
C     1.393781    0.533776   -0.062691    0.007724    0.005172   -0.001489
C     1.168148   -0.779758    0.160441   -0.021577    0.012093    0.000186
N    -0.116197   -1.262094    0.357179   -0.010084    0.009293   -0.000681
C    -1.173993   -0.446979    0.334824   -0.000525   -0.101557    0.015622
N    -0.982141    0.854104    0.116669    0.026931    0.154875   -0.026247
C     0.285100    1.476626   -0.101181   -0.032056   -0.021979    0.006418
O    -2.392774   -0.849779    0.515859    0.140617   -0.110694    0.003260
O     0.338858    2.672655   -0.290012   -0.007557    0.001036    0.000647
H     1.953348   -1.535224    0.201378   -0.087071   -0.051119    0.016422
H    -0.254993   -2.258813    0.525028   -0.201503    0.041244    0.014034
H     2.401547    0.916834   -0.219517   -0.008242    0.046147   -0.006251
H    -1.805505    1.460126    0.102516    0.339146    0.580918   -0.124051
H    -2.476740   -1.809302    0.672136   -1.835072    0.108345    0.164922
