13
* (null), Energy   -1000.0000000
C     1.646520    0.274089   -0.194207    0.088001   -0.019813   -0.004863
C     1.420577   -1.039677    0.025063   -0.165700    0.004977    0.014578
N     0.135453   -1.525757    0.216409    0.200840   -0.049943   -0.010594
C    -0.924794   -0.711788    0.195329    0.041812   -0.082237    0.010939
N    -0.732121    0.590004   -0.024536    0.056917    0.154228   -0.029317
C     0.536344    1.216046   -0.237856   -0.217305   -0.019405    0.022731
O    -2.146146   -1.110315    0.377217   -0.097576    0.009713    0.007362
O     0.589994    2.411153   -0.425909    0.018260    0.024575   -0.005593
H     2.206629   -1.794809    0.067952   -1.083064   -0.927955    0.239133
H     0.004335   -2.526891    0.371768    1.117494   -0.192754   -0.087980
H     2.655430    0.658119   -0.342686    0.049655    0.090016   -0.018253
H    -1.554927    1.198215   -0.034522    0.282904    0.478986   -0.100737
H    -2.238862   -2.064583    0.566301    0.327143   -0.053727   -0.022607
13
* Frequency(26) 1236.6761
C     1.656521    0.271837   -0.194760    0.088001   -0.019813   -0.004863
C     1.401746   -1.039112    0.026720   -0.165700    0.004977    0.014578
N     0.158277   -1.531432    0.215205    0.200840   -0.049943   -0.010594
C    -0.920042   -0.721133    0.196572    0.041812   -0.082237    0.010939
N    -0.725653    0.607531   -0.027868    0.056917    0.154228   -0.029317
C     0.511648    1.213840   -0.235273   -0.217305   -0.019405    0.022731
O    -2.157235   -1.109211    0.378054   -0.097576    0.009713    0.007362
O     0.592069    2.413946   -0.426545    0.018260    0.024575   -0.005593
H     2.083545   -1.900266    0.095128   -1.083064   -0.927955    0.239133
H     0.131333   -2.548796    0.361769    1.117494   -0.192754   -0.087980
H     2.661073    0.668349   -0.344760    0.049655    0.090016   -0.018253
H    -1.522776    1.252649   -0.045971    0.282904    0.478986   -0.100737
H    -2.201684   -2.070688    0.563732    0.327143   -0.053727   -0.022607
13
* Frequency(26) 1236.6761
C     1.665438    0.269830   -0.195253    0.088001   -0.019813   -0.004863
C     1.384955   -1.038607    0.028197   -0.165700    0.004977    0.014578
N     0.178628   -1.536493    0.214132    0.200840   -0.049943   -0.010594
C    -0.915806   -0.729466    0.197680    0.041812   -0.082237    0.010939
N    -0.719885    0.623159   -0.030839    0.056917    0.154228   -0.029317
C     0.489629    1.211874   -0.232969   -0.217305   -0.019405    0.022731
O    -2.167123   -1.108227    0.378800   -0.097576    0.009713    0.007362
O     0.593919    2.416436   -0.427112    0.018260    0.024575   -0.005593
H     1.973798   -1.994296    0.119359   -1.083064   -0.927955    0.239133
H     0.244568   -2.568328    0.352854    1.117494   -0.192754   -0.087980
H     2.666104    0.677470   -0.346610    0.049655    0.090016   -0.018253
H    -1.494110    1.301185   -0.056178    0.282904    0.478986   -0.100737
H    -2.168535   -2.076133    0.561442    0.327143   -0.053727   -0.022607
13
* Frequency(26) 1236.6761
C     1.672305    0.268283   -0.195632    0.088001   -0.019813   -0.004863
C     1.372025   -1.038219    0.029335   -0.165700    0.004977    0.014578
N     0.194301   -1.540390    0.213305    0.200840   -0.049943   -0.010594
C    -0.912543   -0.735884    0.198534    0.041812   -0.082237    0.010939
N    -0.715444    0.635194   -0.033127    0.056917    0.154228   -0.029317
C     0.472672    1.210360   -0.231196   -0.217305   -0.019405    0.022731
O    -2.174737   -1.107469    0.379375   -0.097576    0.009713    0.007362
O     0.595344    2.418353   -0.427548    0.018260    0.024575   -0.005593
H     1.889283   -2.066708    0.138020   -1.083064   -0.927955    0.239133
H     0.331770   -2.583369    0.345989    1.117494   -0.192754   -0.087980
H     2.669979    0.684494   -0.348034    0.049655    0.090016   -0.018253
H    -1.472034    1.338562   -0.064039    0.282904    0.478986   -0.100737
H    -2.143007   -2.080325    0.559677    0.327143   -0.053727   -0.022607
13
* Frequency(26) 1236.6761
C     1.676378    0.267366   -0.195857    0.088001   -0.019813   -0.004863
C     1.364356   -1.037988    0.030010   -0.165700    0.004977    0.014578
N     0.203596   -1.542702    0.212815    0.200840   -0.049943   -0.010594
C    -0.910608   -0.739690    0.199040    0.041812   -0.082237    0.010939
N    -0.712810    0.642332   -0.034484    0.056917    0.154228   -0.029317
C     0.462614    1.209462   -0.230144   -0.217305   -0.019405    0.022731
O    -2.179253   -1.107019    0.379715   -0.097576    0.009713    0.007362
O     0.596189    2.419491   -0.427807    0.018260    0.024575   -0.005593
H     1.839156   -2.109655    0.149087   -1.083064   -0.927955    0.239133
H     0.383490   -2.592290    0.341917    1.117494   -0.192754   -0.087980
H     2.672277    0.688660   -0.348879    0.049655    0.090016   -0.018253
H    -1.458940    1.360730   -0.068701    0.282904    0.478986   -0.100737
H    -2.127866   -2.082812    0.558631    0.327143   -0.053727   -0.022607
13
* Frequency(26) 1236.6761
C     1.677215    0.267178   -0.195904    0.088001   -0.019813   -0.004863
C     1.362780   -1.037941    0.030148   -0.165700    0.004977    0.014578
N     0.205507   -1.543177    0.212714    0.200840   -0.049943   -0.010594
C    -0.910210   -0.740472    0.199144    0.041812   -0.082237    0.010939
N    -0.712268    0.643800   -0.034762    0.056917    0.154228   -0.029317
C     0.460547    1.209277   -0.229927   -0.217305   -0.019405    0.022731
O    -2.180181   -1.106927    0.379785   -0.097576    0.009713    0.007362
O     0.596363    2.419725   -0.427860    0.018260    0.024575   -0.005593
H     1.828852   -2.118484    0.151362   -1.083064   -0.927955    0.239133
H     0.394122   -2.594124    0.341080    1.117494   -0.192754   -0.087980
H     2.672750    0.689517   -0.349053    0.049655    0.090016   -0.018253
H    -1.456249    1.365288   -0.069660    0.282904    0.478986   -0.100737
H    -2.124753   -2.083323    0.558416    0.327143   -0.053727   -0.022607
13
* Frequency(26) 1236.6761
C     1.674726    0.267738   -0.195766    0.088001   -0.019813   -0.004863
C     1.367466   -1.038082    0.029736   -0.165700    0.004977    0.014578
N     0.199826   -1.541764    0.213013    0.200840   -0.049943   -0.010594
C    -0.911393   -0.738146    0.198835    0.041812   -0.082237    0.010939
N    -0.713878    0.639437   -0.033933    0.056917    0.154228   -0.029317
C     0.466693    1.209826   -0.230570   -0.217305   -0.019405    0.022731
O    -2.177421   -1.107202    0.379577   -0.097576    0.009713    0.007362
O     0.595846    2.419030   -0.427702    0.018260    0.024575   -0.005593
H     1.859485   -2.092238    0.144599   -1.083064   -0.927955    0.239133
H     0.362515   -2.588672    0.343568    1.117494   -0.192754   -0.087980
H     2.671345    0.686971   -0.348536    0.049655    0.090016   -0.018253
H    -1.464250    1.351740   -0.066810    0.282904    0.478986   -0.100737
H    -2.134006   -2.081803    0.559055    0.327143   -0.053727   -0.022607
13
* Frequency(26) 1236.6761
C     1.669181    0.268987   -0.195460    0.088001   -0.019813   -0.004863
C     1.377908   -1.038395    0.028817   -0.165700    0.004977    0.014578
N     0.187170   -1.538617    0.213681    0.200840   -0.049943   -0.010594
C    -0.914027   -0.732964    0.198146    0.041812   -0.082237    0.010939
N    -0.717465    0.629718   -0.032086    0.056917    0.154228   -0.029317
C     0.480387    1.211049   -0.232003   -0.217305   -0.019405    0.022731
O    -2.171272   -1.107814    0.379113   -0.097576    0.009713    0.007362
O     0.594696    2.417481   -0.427349    0.018260    0.024575   -0.005593
H     1.927737   -2.033761    0.129529   -1.083064   -0.927955    0.239133
H     0.292094   -2.576525    0.349113    1.117494   -0.192754   -0.087980
H     2.668216    0.681298   -0.347386    0.049655    0.090016   -0.018253
H    -1.482078    1.321556   -0.060462    0.282904    0.478986   -0.100737
H    -2.154622   -2.078417    0.560480    0.327143   -0.053727   -0.022607
13
* Frequency(26) 1236.6761
C     1.661179    0.270788   -0.195017    0.088001   -0.019813   -0.004863
C     1.392974   -1.038848    0.027492   -0.165700    0.004977    0.014578
N     0.168909   -1.534076    0.214644    0.200840   -0.049943   -0.010594
C    -0.917829   -0.725487    0.197151    0.041812   -0.082237    0.010939
N    -0.722640    0.615696   -0.029420    0.056917    0.154228   -0.029317
C     0.500145    1.212813   -0.234069   -0.217305   -0.019405    0.022731
O    -2.162401   -1.108697    0.378444   -0.097576    0.009713    0.007362
O     0.593036    2.415247   -0.426841    0.018260    0.024575   -0.005593
H     2.026211   -1.949389    0.107787   -1.083064   -0.927955    0.239133
H     0.190489   -2.559000    0.357112    1.117494   -0.192754   -0.087980
H     2.663701    0.673114   -0.345727    0.049655    0.090016   -0.018253
H    -1.507800    1.278005   -0.051303    0.282904    0.478986   -0.100737
H    -2.184366   -2.073533    0.562536    0.327143   -0.053727   -0.022607
13
* Frequency(26) 1236.6761
C     1.651590    0.272947   -0.194487    0.088001   -0.019813   -0.004863
C     1.411031   -1.039390    0.025903   -0.165700    0.004977    0.014578
N     0.147023   -1.528634    0.215799    0.200840   -0.049943   -0.010594
C    -0.922385   -0.716525    0.195959    0.041812   -0.082237    0.010939
N    -0.728842    0.598889   -0.026225    0.056917    0.154228   -0.029317
C     0.523825    1.214928   -0.236547   -0.217305   -0.019405    0.022731
O    -2.151767   -1.109755    0.377642   -0.097576    0.009713    0.007362
O     0.591046    2.412569   -0.426231    0.018260    0.024575   -0.005593
H     2.144236   -1.848267    0.081728   -1.083064   -0.927955    0.239133
H     0.068712   -2.537995    0.366700    1.117494   -0.192754   -0.087980
H     2.658290    0.663304   -0.343737    0.049655    0.090016   -0.018253
H    -1.538629    1.225808   -0.040326    0.282904    0.478986   -0.100737
H    -2.220016   -2.067678    0.564999    0.327143   -0.053727   -0.022607
13
* Frequency(26) 1236.6761
C     1.641450    0.275230   -0.193927    0.088001   -0.019813   -0.004863
C     1.430122   -1.039964    0.024224   -0.165700    0.004977    0.014578
N     0.123883   -1.522880    0.217019    0.200840   -0.049943   -0.010594
C    -0.927203   -0.707050    0.194699    0.041812   -0.082237    0.010939
N    -0.735400    0.581119   -0.022847    0.056917    0.154228   -0.029317
C     0.548863    1.217164   -0.239165   -0.217305   -0.019405    0.022731
O    -2.140525   -1.110874    0.376793   -0.097576    0.009713    0.007362
O     0.588942    2.409737   -0.425587    0.018260    0.024575   -0.005593
H     2.269023   -1.741351    0.054176   -1.083064   -0.927955    0.239133
H    -0.060041   -2.515786    0.376836    1.117494   -0.192754   -0.087980
H     2.652569    0.652933   -0.341634    0.049655    0.090016   -0.018253
H    -1.571225    1.170621   -0.028719    0.282904    0.478986   -0.100737
H    -2.257709   -2.061488    0.567604    0.327143   -0.053727   -0.022607
13
* Frequency(26) 1236.6761
C     1.631861    0.277389   -0.193397    0.088001   -0.019813   -0.004863
C     1.448179   -1.040506    0.022635   -0.165700    0.004977    0.014578
N     0.101997   -1.517437    0.218174    0.200840   -0.049943   -0.010594
C    -0.931759   -0.698088    0.193507    0.041812   -0.082237    0.010939
N    -0.741602    0.564313   -0.019653    0.056917    0.154228   -0.029317
C     0.572543    1.219278   -0.241643   -0.217305   -0.019405    0.022731
O    -2.129892   -1.111933    0.375991   -0.097576    0.009713    0.007362
O     0.586952    2.407059   -0.424978    0.018260    0.024575   -0.005593
H     2.387048   -1.640229    0.028117   -1.083064   -0.927955    0.239133
H    -0.181819   -2.494781    0.386424    1.117494   -0.192754   -0.087980
H     2.647158    0.643124   -0.339645    0.049655    0.090016   -0.018253
H    -1.602054    1.118425   -0.017741    0.282904    0.478986   -0.100737
H    -2.293358   -2.055633    0.570067    0.327143   -0.053727   -0.022607
13
* Frequency(26) 1236.6761
C     1.623859    0.279191   -0.192955    0.088001   -0.019813   -0.004863
C     1.463245   -1.040959    0.021310   -0.165700    0.004977    0.014578
N     0.083736   -1.512896    0.219137    0.200840   -0.049943   -0.010594
C    -0.935561   -0.690611    0.192512    0.041812   -0.082237    0.010939
N    -0.746777    0.550290   -0.016987    0.056917    0.154228   -0.029317
C     0.592301    1.221042   -0.243709   -0.217305   -0.019405    0.022731
O    -2.121020   -1.112816    0.375322   -0.097576    0.009713    0.007362
O     0.585292    2.404825   -0.424469    0.018260    0.024575   -0.005593
H     2.485522   -1.555857    0.006374   -1.083064   -0.927955    0.239133
H    -0.283423   -2.477256    0.394423    1.117494   -0.192754   -0.087980
H     2.642644    0.634939   -0.337986    0.049655    0.090016   -0.018253
H    -1.627776    1.074874   -0.008582    0.282904    0.478986   -0.100737
H    -2.323103   -2.050748    0.572123    0.327143   -0.053727   -0.022607
13
* Frequency(26) 1236.6761
C     1.618314    0.280439   -0.192648    0.088001   -0.019813   -0.004863
C     1.473687   -1.041273    0.020391   -0.165700    0.004977    0.014578
N     0.071080   -1.509749    0.219804    0.200840   -0.049943   -0.010594
C    -0.938196   -0.685429    0.191823    0.041812   -0.082237    0.010939
N    -0.750364    0.540571   -0.015140    0.056917    0.154228   -0.029317
C     0.605995    1.222265   -0.245142   -0.217305   -0.019405    0.022731
O    -2.114871   -1.113428    0.374858   -0.097576    0.009713    0.007362
O     0.584141    2.403276   -0.424117    0.018260    0.024575   -0.005593
H     2.553774   -1.497380   -0.008695   -1.083064   -0.927955    0.239133
H    -0.353845   -2.465109    0.399968    1.117494   -0.192754   -0.087980
H     2.639515    0.629267   -0.336836    0.049655    0.090016   -0.018253
H    -1.645603    1.044690   -0.002234    0.282904    0.478986   -0.100737
H    -2.343719   -2.047362    0.573547    0.327143   -0.053727   -0.022607
13
* Frequency(26) 1236.6761
C     1.615825    0.281000   -0.192511    0.088001   -0.019813   -0.004863
C     1.478374   -1.041413    0.019979   -0.165700    0.004977    0.014578
N     0.065399   -1.508336    0.220104    0.200840   -0.049943   -0.010594
C    -0.939378   -0.683103    0.191513    0.041812   -0.082237    0.010939
N    -0.751974    0.536209   -0.014310    0.056917    0.154228   -0.029317
C     0.612141    1.222814   -0.245785   -0.217305   -0.019405    0.022731
O    -2.112111   -1.113702    0.374649   -0.097576    0.009713    0.007362
O     0.583625    2.402581   -0.423959    0.018260    0.024575   -0.005593
H     2.584407   -1.471134   -0.015459   -1.083064   -0.927955    0.239133
H    -0.385452   -2.459657    0.402456    1.117494   -0.192754   -0.087980
H     2.638110    0.626721   -0.336319    0.049655    0.090016   -0.018253
H    -1.653605    1.031142    0.000615    0.282904    0.478986   -0.100737
H    -2.352971   -2.045843    0.574187    0.327143   -0.053727   -0.022607
13
* Frequency(26) 1236.6761
C     1.616662    0.280811   -0.192557    0.088001   -0.019813   -0.004863
C     1.476797   -1.041366    0.020117   -0.165700    0.004977    0.014578
N     0.067310   -1.508812    0.220003    0.200840   -0.049943   -0.010594
C    -0.938980   -0.683885    0.191617    0.041812   -0.082237    0.010939
N    -0.751432    0.537676   -0.014589    0.056917    0.154228   -0.029317
C     0.610074    1.222629   -0.245568   -0.217305   -0.019405    0.022731
O    -2.113039   -1.113610    0.374719   -0.097576    0.009713    0.007362
O     0.583799    2.402815   -0.424012    0.018260    0.024575   -0.005593
H     2.574102   -1.479963   -0.013183   -1.083064   -0.927955    0.239133
H    -0.374819   -2.461491    0.401619    1.117494   -0.192754   -0.087980
H     2.638583    0.627577   -0.336493    0.049655    0.090016   -0.018253
H    -1.650913    1.035700   -0.000343    0.282904    0.478986   -0.100737
H    -2.349859   -2.046354    0.573972    0.327143   -0.053727   -0.022607
13
* Frequency(26) 1236.6761
C     1.620735    0.279894   -0.192782    0.088001   -0.019813   -0.004863
C     1.469128   -1.041136    0.020792   -0.165700    0.004977    0.014578
N     0.076605   -1.511123    0.219513    0.200840   -0.049943   -0.010594
C    -0.937045   -0.687691    0.192124    0.041812   -0.082237    0.010939
N    -0.748798    0.544814   -0.015946    0.056917    0.154228   -0.029317
C     0.600016    1.221731   -0.244516   -0.217305   -0.019405    0.022731
O    -2.117555   -1.113160    0.375060   -0.097576    0.009713    0.007362
O     0.584644    2.403952   -0.424271    0.018260    0.024575   -0.005593
H     2.523976   -1.522910   -0.002116   -1.083064   -0.927955    0.239133
H    -0.323100   -2.470412    0.397547    1.117494   -0.192754   -0.087980
H     2.640881    0.631743   -0.337338    0.049655    0.090016   -0.018253
H    -1.637820    1.057868   -0.005006    0.282904    0.478986   -0.100737
H    -2.334718   -2.048840    0.572925    0.327143   -0.053727   -0.022607
13
* Frequency(26) 1236.6761
C     1.627602    0.278348   -0.193162    0.088001   -0.019813   -0.004863
C     1.456198   -1.040747    0.021930   -0.165700    0.004977    0.014578
N     0.092277   -1.515020    0.218686    0.200840   -0.049943   -0.010594
C    -0.933782   -0.694109    0.192977    0.041812   -0.082237    0.010939
N    -0.744357    0.556849   -0.018234    0.056917    0.154228   -0.029317
C     0.583059    1.220217   -0.242743   -0.217305   -0.019405    0.022731
O    -2.125170   -1.112403    0.375635   -0.097576    0.009713    0.007362
O     0.586068    2.405870   -0.424707    0.018260    0.024575   -0.005593
H     2.439460   -1.595322    0.016544   -1.083064   -0.927955    0.239133
H    -0.235897   -2.485454    0.390682    1.117494   -0.192754   -0.087980
H     2.644755    0.638767   -0.338762    0.049655    0.090016   -0.018253
H    -1.615744    1.095245   -0.012867    0.282904    0.478986   -0.100737
H    -2.309190   -2.053033    0.571161    0.327143   -0.053727   -0.022607
13
* Frequency(26) 1236.6761
C     1.636519    0.276340   -0.193654    0.088001   -0.019813   -0.004863
C     1.439408   -1.040243    0.023407   -0.165700    0.004977    0.014578
N     0.112629   -1.520081    0.217613    0.200840   -0.049943   -0.010594
C    -0.929546   -0.702442    0.194086    0.041812   -0.082237    0.010939
N    -0.738589    0.572477   -0.021205    0.056917    0.154228   -0.029317
C     0.561040    1.218251   -0.240439   -0.217305   -0.019405    0.022731
O    -2.135057   -1.111418    0.376381   -0.097576    0.009713    0.007362
O     0.587919    2.408360   -0.425274    0.018260    0.024575   -0.005593
H     2.329714   -1.689352    0.040776   -1.083064   -0.927955    0.239133
H    -0.122662   -2.504985    0.381767    1.117494   -0.192754   -0.087980
H     2.649787    0.647889   -0.340612    0.049655    0.090016   -0.018253
H    -1.587078    1.143781   -0.023074    0.282904    0.478986   -0.100737
H    -2.276041   -2.058477    0.568871    0.327143   -0.053727   -0.022607
13
* Frequency(26) 1236.6761
C     1.646520    0.274089   -0.194207    0.088001   -0.019813   -0.004863
C     1.420577   -1.039677    0.025063   -0.165700    0.004977    0.014578
N     0.135453   -1.525757    0.216409    0.200840   -0.049943   -0.010594
C    -0.924794   -0.711788    0.195329    0.041812   -0.082237    0.010939
N    -0.732121    0.590004   -0.024536    0.056917    0.154228   -0.029317
C     0.536344    1.216046   -0.237856   -0.217305   -0.019405    0.022731
O    -2.146146   -1.110315    0.377217   -0.097576    0.009713    0.007362
O     0.589994    2.411153   -0.425909    0.018260    0.024575   -0.005593
H     2.206629   -1.794809    0.067952   -1.083064   -0.927955    0.239133
H     0.004335   -2.526891    0.371768    1.117494   -0.192754   -0.087980
H     2.655430    0.658119   -0.342686    0.049655    0.090016   -0.018253
H    -1.554927    1.198215   -0.034522    0.282904    0.478986   -0.100737
H    -2.238862   -2.064583    0.566301    0.327143   -0.053727   -0.022607
