13
* (null), Energy   -1000.0000000
C     1.646520    0.274089   -0.194207   -0.015646   -0.712249    0.109153
C     1.420577   -1.039677    0.025063    0.259767    0.777797   -0.140699
N     0.135453   -1.525757    0.216409    0.067065   -0.290328    0.036275
C    -0.924794   -0.711788    0.195329   -0.042030    0.666878   -0.100429
N    -0.732121    0.590004   -0.024536   -0.027522   -0.332909    0.054384
C     0.536344    1.216046   -0.237856   -0.083406   -0.097747    0.023235
O    -2.146146   -1.110315    0.377217   -0.004294   -0.093447    0.016584
O     0.589994    2.411153   -0.425909    0.014026    0.187472   -0.030187
H     2.206629   -1.794809    0.067952   -1.006340   -0.361726    0.143799
H     0.004335   -2.526891    0.371768   -0.266480   -0.266628    0.074527
H     2.655430    0.658119   -0.342686   -0.482510    0.192837    0.014009
H    -1.554927    1.198215   -0.034522    0.272372    0.035946   -0.032074
H    -2.238862   -2.064583    0.566301   -0.635178    0.004980    0.051580
13
* Frequency(32) 1715.1077
C     1.644742    0.193145   -0.181803   -0.015646   -0.712249    0.109153
C     1.450098   -0.951285    0.009074    0.259767    0.777797   -0.140699
N     0.143075   -1.558751    0.220531    0.067065   -0.290328    0.036275
C    -0.929571   -0.636000    0.183915   -0.042030    0.666878   -0.100429
N    -0.735249    0.552171   -0.018356   -0.027522   -0.332909    0.054384
C     0.526865    1.204937   -0.235216   -0.083406   -0.097747    0.023235
O    -2.146634   -1.120934    0.379102   -0.004294   -0.093447    0.016584
O     0.591588    2.432458   -0.429340    0.014026    0.187472   -0.030187
H     2.092264   -1.835917    0.084294   -1.006340   -0.361726    0.143799
H    -0.025949   -2.557192    0.380238   -0.266480   -0.266628    0.074527
H     2.600595    0.680034   -0.341094   -0.482510    0.192837    0.014009
H    -1.523973    1.202300   -0.038167    0.272372    0.035946   -0.032074
H    -2.311047   -2.064017    0.572163   -0.635178    0.004980    0.051580
13
* Frequency(32) 1715.1077
C     1.643156    0.120973   -0.170742   -0.015646   -0.712249    0.109153
C     1.476420   -0.872471   -0.005183    0.259767    0.777797   -0.140699
N     0.149870   -1.588170    0.224207    0.067065   -0.290328    0.036275
C    -0.933829   -0.568426    0.173739   -0.042030    0.666878   -0.100429
N    -0.738038    0.518437   -0.012845   -0.027522   -0.332909    0.054384
C     0.518414    1.195033   -0.232861   -0.083406   -0.097747    0.023235
O    -2.147069   -1.130403    0.380783   -0.004294   -0.093447    0.016584
O     0.593009    2.451454   -0.432399    0.014026    0.187472   -0.030187
H     1.990292   -1.872571    0.098865   -1.006340   -0.361726    0.143799
H    -0.052951   -2.584209    0.387789   -0.266480   -0.266628    0.074527
H     2.551703    0.699574   -0.339674   -0.482510    0.192837    0.014009
H    -1.496374    1.205942   -0.041417    0.272372    0.035946   -0.032074
H    -2.375410   -2.063512    0.577390   -0.635178    0.004980    0.051580
13
* Frequency(32) 1715.1077
C     1.641936    0.065394   -0.162225   -0.015646   -0.712249    0.109153
C     1.496691   -0.811776   -0.016162    0.259767    0.777797   -0.140699
N     0.155104   -1.610825    0.227038    0.067065   -0.290328    0.036275
C    -0.937109   -0.516387    0.165902   -0.042030    0.666878   -0.100429
N    -0.740185    0.492459   -0.008601   -0.027522   -0.332909    0.054384
C     0.511905    1.187405   -0.231048   -0.083406   -0.097747    0.023235
O    -2.147404   -1.137695    0.382077   -0.004294   -0.093447    0.016584
O     0.594103    2.466084   -0.434754    0.014026    0.187472   -0.030187
H     1.911763   -1.900798    0.110086   -1.006340   -0.361726    0.143799
H    -0.073745   -2.605015    0.393605   -0.266480   -0.266628    0.074527
H     2.514050    0.714622   -0.338581   -0.482510    0.192837    0.014009
H    -1.475120    1.208747   -0.043920    0.272372    0.035946   -0.032074
H    -2.424975   -2.063124    0.581415   -0.635178    0.004980    0.051580
13
* Frequency(32) 1715.1077
C     1.641211    0.032430   -0.157173   -0.015646   -0.712249    0.109153
C     1.508713   -0.775778   -0.022674    0.259767    0.777797   -0.140699
N     0.158208   -1.624262    0.228717    0.067065   -0.290328    0.036275
C    -0.939055   -0.485522    0.161254   -0.042030    0.666878   -0.100429
N    -0.741459    0.477051   -0.006084   -0.027522   -0.332909    0.054384
C     0.508045    1.182881   -0.229973   -0.083406   -0.097747    0.023235
O    -2.147603   -1.142020    0.382844   -0.004294   -0.093447    0.016584
O     0.594753    2.474760   -0.436152    0.014026    0.187472   -0.030187
H     1.865188   -1.917539    0.116741   -1.006340   -0.361726    0.143799
H    -0.086079   -2.617355    0.397054   -0.266480   -0.266628    0.074527
H     2.491719    0.723546   -0.337933   -0.482510    0.192837    0.014009
H    -1.462514    1.210411   -0.045405    0.272372    0.035946   -0.032074
H    -2.454372   -2.062893    0.583802   -0.635178    0.004980    0.051580
13
* Frequency(32) 1715.1077
C     1.641063    0.025653   -0.156134   -0.015646   -0.712249    0.109153
C     1.511185   -0.768378   -0.024013    0.259767    0.777797   -0.140699
N     0.158846   -1.627024    0.229062    0.067065   -0.290328    0.036275
C    -0.939454   -0.479177    0.160299   -0.042030    0.666878   -0.100429
N    -0.741721    0.473884   -0.005567   -0.027522   -0.332909    0.054384
C     0.507251    1.181951   -0.229752   -0.083406   -0.097747    0.023235
O    -2.147644   -1.142909    0.383002   -0.004294   -0.093447    0.016584
O     0.594886    2.476544   -0.436439    0.014026    0.187472   -0.030187
H     1.855613   -1.920981    0.118110   -1.006340   -0.361726    0.143799
H    -0.088614   -2.619892    0.397763   -0.266480   -0.266628    0.074527
H     2.487128    0.725381   -0.337800   -0.482510    0.192837    0.014009
H    -1.459923    1.210753   -0.045710    0.272372    0.035946   -0.032074
H    -2.460416   -2.062846    0.584293   -0.635178    0.004980    0.051580
13
* Frequency(32) 1715.1077
C     1.641505    0.045798   -0.159221   -0.015646   -0.712249    0.109153
C     1.503837   -0.790377   -0.020033    0.259767    0.777797   -0.140699
N     0.156949   -1.618813    0.228036    0.067065   -0.290328    0.036275
C    -0.938266   -0.498039    0.163139   -0.042030    0.666878   -0.100429
N    -0.740943    0.483300   -0.007105   -0.027522   -0.332909    0.054384
C     0.509611    1.184716   -0.230409   -0.083406   -0.097747    0.023235
O    -2.147522   -1.140266    0.382533   -0.004294   -0.093447    0.016584
O     0.594489    2.471241   -0.435585    0.014026    0.187472   -0.030187
H     1.884077   -1.910750    0.114042   -1.006340   -0.361726    0.143799
H    -0.081077   -2.612351    0.395656   -0.266480   -0.266628    0.074527
H     2.500775    0.719927   -0.338196   -0.482510    0.192837    0.014009
H    -1.467626    1.209736   -0.044803    0.272372    0.035946   -0.032074
H    -2.442450   -2.062987    0.582834   -0.635178    0.004980    0.051580
13
* Frequency(32) 1715.1077
C     1.642491    0.090682   -0.166100   -0.015646   -0.712249    0.109153
C     1.487468   -0.839392   -0.011167    0.259767    0.777797   -0.140699
N     0.152723   -1.600517    0.225750    0.067065   -0.290328    0.036275
C    -0.935617   -0.540064    0.169468   -0.042030    0.666878   -0.100429
N    -0.739208    0.504279   -0.010532   -0.027522   -0.332909    0.054384
C     0.514867    1.190876   -0.231873   -0.083406   -0.097747    0.023235
O    -2.147252   -1.134378    0.381488   -0.004294   -0.093447    0.016584
O     0.593605    2.459427   -0.433683    0.014026    0.187472   -0.030187
H     1.947493   -1.887955    0.104981   -1.006340   -0.361726    0.143799
H    -0.064284   -2.595548    0.390959   -0.266480   -0.266628    0.074527
H     2.531182    0.707775   -0.339079   -0.482510    0.192837    0.014009
H    -1.484790    1.207471   -0.042781    0.272372    0.035946   -0.032074
H    -2.402423   -2.063300    0.579583   -0.635178    0.004980    0.051580
13
* Frequency(32) 1715.1077
C     1.643914    0.155441   -0.176024   -0.015646   -0.712249    0.109153
C     1.463849   -0.910111    0.001626    0.259767    0.777797   -0.140699
N     0.146625   -1.574120    0.222452    0.067065   -0.290328    0.036275
C    -0.931796   -0.600698    0.178599   -0.042030    0.666878   -0.100429
N    -0.736706    0.534548   -0.015477   -0.027522   -0.332909    0.054384
C     0.522450    1.199763   -0.233986   -0.083406   -0.097747    0.023235
O    -2.146861   -1.125881    0.379980   -0.004294   -0.093447    0.016584
O     0.592330    2.442382   -0.430938    0.014026    0.187472   -0.030187
H     2.038992   -1.855066    0.091906   -1.006340   -0.361726    0.143799
H    -0.040055   -2.571306    0.384183   -0.266480   -0.266628    0.074527
H     2.575053    0.690242   -0.340352   -0.482510    0.192837    0.014009
H    -1.509555    1.204203   -0.039865    0.272372    0.035946   -0.032074
H    -2.344671   -2.063753    0.574894   -0.635178    0.004980    0.051580
13
* Frequency(32) 1715.1077
C     1.645619    0.233057   -0.187919   -0.015646   -0.712249    0.109153
C     1.435541   -0.994870    0.016958    0.259767    0.777797   -0.140699
N     0.139316   -1.542482    0.218499    0.067065   -0.290328    0.036275
C    -0.927215   -0.673370    0.189543   -0.042030    0.666878   -0.100429
N    -0.733707    0.570826   -0.021403   -0.027522   -0.332909    0.054384
C     0.531539    1.210415   -0.236517   -0.083406   -0.097747    0.023235
O    -2.146393   -1.115698    0.378173   -0.004294   -0.093447    0.016584
O     0.590802    2.421953   -0.427648    0.014026    0.187472   -0.030187
H     2.148656   -1.815647    0.076236   -1.006340   -0.361726    0.143799
H    -0.011016   -2.542251    0.376061   -0.266480   -0.266628    0.074527
H     2.627633    0.669228   -0.341879   -0.482510    0.192837    0.014009
H    -1.539236    1.200286   -0.036370    0.272372    0.035946   -0.032074
H    -2.275454   -2.064296    0.569273   -0.635178    0.004980    0.051580
13
* Frequency(32) 1715.1077
C     1.647421    0.315120   -0.200495   -0.015646   -0.712249    0.109153
C     1.405612   -1.084485    0.033169    0.259767    0.777797   -0.140699
N     0.131589   -1.509031    0.214319    0.067065   -0.290328    0.036275
C    -0.922373   -0.750205    0.201114   -0.042030    0.666878   -0.100429
N    -0.730536    0.609182   -0.027669   -0.027522   -0.332909    0.054384
C     0.541149    1.221677   -0.239195   -0.083406   -0.097747    0.023235
O    -2.145899   -1.104931    0.376262   -0.004294   -0.093447    0.016584
O     0.589186    2.400353   -0.424170    0.014026    0.187472   -0.030187
H     2.264603   -1.773971    0.059668   -1.006340   -0.361726    0.143799
H     0.019687   -2.511531    0.367475   -0.266480   -0.266628    0.074527
H     2.683226    0.647010   -0.343493   -0.482510    0.192837    0.014009
H    -1.570618    1.196144   -0.032675    0.272372    0.035946   -0.032074
H    -2.202271   -2.064870    0.563330   -0.635178    0.004980    0.051580
13
* Frequency(32) 1715.1077
C     1.649126    0.392736   -0.212390   -0.015646   -0.712249    0.109153
C     1.377304   -1.169244    0.048501    0.259767    0.777797   -0.140699
N     0.124281   -1.477393    0.210366    0.067065   -0.290328    0.036275
C    -0.917793   -0.822877    0.212058   -0.042030    0.666878   -0.100429
N    -0.727536    0.645461   -0.033596   -0.027522   -0.332909    0.054384
C     0.550238    1.232328   -0.241726   -0.083406   -0.097747    0.023235
O    -2.145431   -1.094748    0.374455   -0.004294   -0.093447    0.016584
O     0.587657    2.379923   -0.420881    0.014026    0.187472   -0.030187
H     2.374267   -1.734552    0.043998   -1.006340   -0.361726    0.143799
H     0.048726   -2.482475    0.359353   -0.266480   -0.266628    0.074527
H     2.735807    0.625995   -0.345020   -0.482510    0.192837    0.014009
H    -1.600299    1.192227   -0.029179    0.272372    0.035946   -0.032074
H    -2.133053   -2.065412    0.557709   -0.635178    0.004980    0.051580
13
* Frequency(32) 1715.1077
C     1.650549    0.457495   -0.222314   -0.015646   -0.712249    0.109153
C     1.353686   -1.239962    0.061294    0.259767    0.777797   -0.140699
N     0.118183   -1.450996    0.207068    0.067065   -0.290328    0.036275
C    -0.913971   -0.883511    0.221190   -0.042030    0.666878   -0.100429
N    -0.725034    0.675729   -0.038541   -0.027522   -0.332909    0.054384
C     0.557821    1.241216   -0.243839   -0.083406   -0.097747    0.023235
O    -2.145040   -1.086252    0.372947   -0.004294   -0.093447    0.016584
O     0.586382    2.362878   -0.418136    0.014026    0.187472   -0.030187
H     2.465765   -1.701663    0.030923   -1.006340   -0.361726    0.143799
H     0.072955   -2.458233    0.352577   -0.266480   -0.266628    0.074527
H     2.779678    0.608462   -0.346293   -0.482510    0.192837    0.014009
H    -1.625064    1.188959   -0.026263    0.272372    0.035946   -0.032074
H    -2.075302   -2.065865    0.553019   -0.635178    0.004980    0.051580
13
* Frequency(32) 1715.1077
C     1.651535    0.502379   -0.229193   -0.015646   -0.712249    0.109153
C     1.337316   -1.288977    0.070160    0.259767    0.777797   -0.140699
N     0.113957   -1.432701    0.204782    0.067065   -0.290328    0.036275
C    -0.911322   -0.925536    0.227518   -0.042030    0.666878   -0.100429
N    -0.723300    0.696709   -0.041968   -0.027522   -0.332909    0.054384
C     0.563077    1.247376   -0.245303   -0.083406   -0.097747    0.023235
O    -2.144770   -1.080363    0.371902   -0.004294   -0.093447    0.016584
O     0.585498    2.351064   -0.416234    0.014026    0.187472   -0.030187
H     2.529182   -1.678868    0.021861   -1.006340   -0.361726    0.143799
H     0.089748   -2.441431    0.347880   -0.266480   -0.266628    0.074527
H     2.810084    0.596310   -0.347176   -0.482510    0.192837    0.014009
H    -1.642228    1.186694   -0.024242    0.272372    0.035946   -0.032074
H    -2.035275   -2.066179    0.549769   -0.635178    0.004980    0.051580
13
* Frequency(32) 1715.1077
C     1.651978    0.522525   -0.232280   -0.015646   -0.712249    0.109153
C     1.329969   -1.310976    0.074140    0.259767    0.777797   -0.140699
N     0.112060   -1.424489    0.203756    0.067065   -0.290328    0.036275
C    -0.910134   -0.944398    0.230359   -0.042030    0.666878   -0.100429
N    -0.722521    0.706125   -0.043506   -0.027522   -0.332909    0.054384
C     0.565436    1.250140   -0.245960   -0.083406   -0.097747    0.023235
O    -2.144648   -1.077720    0.371433   -0.004294   -0.093447    0.016584
O     0.585102    2.345762   -0.415380    0.014026    0.187472   -0.030187
H     2.557645   -1.668637    0.017794   -1.006340   -0.361726    0.143799
H     0.097285   -2.433890    0.345773   -0.266480   -0.266628    0.074527
H     2.823732    0.590856   -0.347572   -0.482510    0.192837    0.014009
H    -1.649931    1.185677   -0.023335    0.272372    0.035946   -0.032074
H    -2.017309   -2.066320    0.548310   -0.635178    0.004980    0.051580
13
* Frequency(32) 1715.1077
C     1.651829    0.515748   -0.231242   -0.015646   -0.712249    0.109153
C     1.332440   -1.303576    0.072801    0.259767    0.777797   -0.140699
N     0.112698   -1.427251    0.204101    0.067065   -0.290328    0.036275
C    -0.910534   -0.938053    0.229403   -0.042030    0.666878   -0.100429
N    -0.722783    0.702957   -0.042988   -0.027522   -0.332909    0.054384
C     0.564643    1.249210   -0.245739   -0.083406   -0.097747    0.023235
O    -2.144689   -1.078609    0.371591   -0.004294   -0.093447    0.016584
O     0.585235    2.347546   -0.415667    0.014026    0.187472   -0.030187
H     2.548070   -1.672079    0.019162   -1.006340   -0.361726    0.143799
H     0.094749   -2.436426    0.346482   -0.266480   -0.266628    0.074527
H     2.819141    0.592691   -0.347439   -0.482510    0.192837    0.014009
H    -1.647340    1.186019   -0.023640    0.272372    0.035946   -0.032074
H    -2.023353   -2.066272    0.548801   -0.635178    0.004980    0.051580
13
* Frequency(32) 1715.1077
C     1.651105    0.482784   -0.226190   -0.015646   -0.712249    0.109153
C     1.344463   -1.267578    0.066289    0.259767    0.777797   -0.140699
N     0.115802   -1.440688    0.205780    0.067065   -0.290328    0.036275
C    -0.912479   -0.907188    0.224755   -0.042030    0.666878   -0.100429
N    -0.724057    0.687549   -0.040471   -0.027522   -0.332909    0.054384
C     0.560783    1.244686   -0.244664   -0.083406   -0.097747    0.023235
O    -2.144888   -1.082934    0.372358   -0.004294   -0.093447    0.016584
O     0.585884    2.356222   -0.417064    0.014026    0.187472   -0.030187
H     2.501495   -1.688820    0.025818   -1.006340   -0.361726    0.143799
H     0.082416   -2.448766    0.349931   -0.266480   -0.266628    0.074527
H     2.796809    0.601616   -0.346791   -0.482510    0.192837    0.014009
H    -1.634734    1.187683   -0.025124    0.272372    0.035946   -0.032074
H    -2.052750   -2.066042    0.551188   -0.635178    0.004980    0.051580
13
* Frequency(32) 1715.1077
C     1.649884    0.427204   -0.217672   -0.015646   -0.712249    0.109153
C     1.364733   -1.206884    0.055310    0.259767    0.777797   -0.140699
N     0.121036   -1.463344    0.208611    0.067065   -0.290328    0.036275
C    -0.915759   -0.855149    0.216919   -0.042030    0.666878   -0.100429
N    -0.726204    0.661571   -0.036228   -0.027522   -0.332909    0.054384
C     0.554274    1.237059   -0.242851   -0.083406   -0.097747    0.023235
O    -2.145223   -1.090226    0.373652   -0.004294   -0.093447    0.016584
O     0.586979    2.370851   -0.419420    0.014026    0.187472   -0.030187
H     2.422967   -1.717047    0.037039   -1.006340   -0.361726    0.143799
H     0.061622   -2.469572    0.355747   -0.266480   -0.266628    0.074527
H     2.759157    0.616664   -0.345698   -0.482510    0.192837    0.014009
H    -1.613480    1.190488   -0.027627    0.272372    0.035946   -0.032074
H    -2.102315   -2.065653    0.555213   -0.635178    0.004980    0.051580
13
* Frequency(32) 1715.1077
C     1.648298    0.355032   -0.206612   -0.015646   -0.712249    0.109153
C     1.391056   -1.128070    0.041053    0.259767    0.777797   -0.140699
N     0.127831   -1.492762    0.212286    0.067065   -0.290328    0.036275
C    -0.920018   -0.787575    0.206742   -0.042030    0.666878   -0.100429
N    -0.728993    0.627838   -0.030717   -0.027522   -0.332909    0.054384
C     0.545823    1.227154   -0.240497   -0.083406   -0.097747    0.023235
O    -2.145658   -1.099695    0.375333   -0.004294   -0.093447    0.016584
O     0.588400    2.389848   -0.422479    0.014026    0.187472   -0.030187
H     2.320995   -1.753701    0.051610   -1.006340   -0.361726    0.143799
H     0.034619   -2.496590    0.363298   -0.266480   -0.266628    0.074527
H     2.710265    0.636204   -0.344278   -0.482510    0.192837    0.014009
H    -1.585881    1.194130   -0.030877    0.272372    0.035946   -0.032074
H    -2.166678   -2.065149    0.560440   -0.635178    0.004980    0.051580
13
* Frequency(32) 1715.1077
C     1.646520    0.274089   -0.194207   -0.015646   -0.712249    0.109153
C     1.420577   -1.039677    0.025063    0.259767    0.777797   -0.140699
N     0.135453   -1.525757    0.216409    0.067065   -0.290328    0.036275
C    -0.924794   -0.711788    0.195329   -0.042030    0.666878   -0.100429
N    -0.732121    0.590004   -0.024536   -0.027522   -0.332909    0.054384
C     0.536344    1.216046   -0.237856   -0.083406   -0.097747    0.023235
O    -2.146146   -1.110315    0.377217   -0.004294   -0.093447    0.016584
O     0.589994    2.411153   -0.425909    0.014026    0.187472   -0.030187
H     2.206629   -1.794809    0.067952   -1.006340   -0.361726    0.143799
H     0.004335   -2.526891    0.371768   -0.266480   -0.266628    0.074527
H     2.655430    0.658119   -0.342686   -0.482510    0.192837    0.014009
H    -1.554927    1.198215   -0.034522    0.272372    0.035946   -0.032074
H    -2.238862   -2.064583    0.566301   -0.635178    0.004980    0.051580
