13
* (null), Energy   -1000.0000000
C     1.393781    0.533776   -0.062691   -0.197378   -0.119631    0.037102
C     1.168148   -0.779758    0.160441   -0.124202    0.093986   -0.001978
N    -0.116197   -1.262094    0.357179    0.284631    0.002685   -0.028513
C    -1.173993   -0.446979    0.334824   -0.003358    0.037950   -0.005354
N    -0.982141    0.854104    0.116669   -0.124225    0.112897   -0.005363
C     0.285100    1.476626   -0.101181    0.197528   -0.022322   -0.015583
O    -2.392774   -0.849779    0.515859   -0.090139   -0.002900    0.009192
O     0.338858    2.672655   -0.290012   -0.043949   -0.067193    0.014612
H     1.953348   -1.535224    0.201378    0.527866    0.794703   -0.174813
H    -0.254993   -2.258813    0.525028    0.690101   -0.056566   -0.055149
H     2.401547    0.916834   -0.219517    0.297184   -1.441044    0.193416
H    -1.805505    1.460126    0.102516    0.023435    0.333206   -0.053773
H    -2.476740   -1.809302    0.672136   -0.121136   -0.004522    0.014186
13
* Frequency(23) 1085.1732
C     1.371350    0.520180   -0.058474   -0.197378   -0.119631    0.037102
C     1.154033   -0.769078    0.160216   -0.124202    0.093986   -0.001978
N    -0.083850   -1.261789    0.353939    0.284631    0.002685   -0.028513
C    -1.174374   -0.442666    0.334216   -0.003358    0.037950   -0.005354
N    -0.996258    0.866934    0.116059   -0.124225    0.112897   -0.005363
C     0.307548    1.474089   -0.102952    0.197528   -0.022322   -0.015583
O    -2.403018   -0.850109    0.516904   -0.090139   -0.002900    0.009192
O     0.333864    2.665018   -0.288351   -0.043949   -0.067193    0.014612
H     2.013337   -1.444910    0.181511    0.527866    0.794703   -0.174813
H    -0.176567   -2.265242    0.518761    0.690101   -0.056566   -0.055149
H     2.435320    0.753066   -0.197536    0.297184   -1.441044    0.193416
H    -1.802842    1.497994    0.096405    0.023435    0.333206   -0.053773
H    -2.490506   -1.809815    0.673748   -0.121136   -0.004522    0.014186
13
* Frequency(23) 1085.1732
C     1.351350    0.508058   -0.054715   -0.197378   -0.119631    0.037102
C     1.141448   -0.759554    0.160016   -0.124202    0.093986   -0.001978
N    -0.055008   -1.261517    0.351050    0.284631    0.002685   -0.028513
C    -1.174715   -0.438821    0.333673   -0.003358    0.037950   -0.005354
N    -1.008846    0.878374    0.115516   -0.124225    0.112897   -0.005363
C     0.327564    1.471827   -0.104531    0.197528   -0.022322   -0.015583
O    -2.412152   -0.850403    0.517835   -0.090139   -0.002900    0.009192
O     0.329410    2.658210   -0.286871   -0.043949   -0.067193    0.014612
H     2.066826   -1.364383    0.163797    0.527866    0.794703   -0.174813
H    -0.106639   -2.270974    0.513173    0.690101   -0.056566   -0.055149
H     2.465434    0.607046   -0.177937    0.297184   -1.441044    0.193416
H    -1.800467    1.531757    0.090956    0.023435    0.333206   -0.053773
H    -2.502781   -1.810274    0.675186   -0.121136   -0.004522    0.014186
13
* Frequency(23) 1085.1732
C     1.335948    0.498723   -0.051819   -0.197378   -0.119631    0.037102
C     1.131756   -0.752220    0.159862   -0.124202    0.093986   -0.001978
N    -0.032798   -1.261307    0.348825    0.284631    0.002685   -0.028513
C    -1.174977   -0.435859    0.333255   -0.003358    0.037950   -0.005354
N    -1.018540    0.887183    0.115098   -0.124225    0.112897   -0.005363
C     0.342978    1.470085   -0.105747    0.197528   -0.022322   -0.015583
O    -2.419186   -0.850629    0.518552   -0.090139   -0.002900    0.009192
O     0.325981    2.652966   -0.285731   -0.043949   -0.067193    0.014612
H     2.108017   -1.302369    0.150156    0.527866    0.794703   -0.174813
H    -0.052788   -2.275388    0.508869    0.690101   -0.056566   -0.055149
H     2.488624    0.494596   -0.162844    0.297184   -1.441044    0.193416
H    -1.798638    1.557759    0.086760    0.023435    0.333206   -0.053773
H    -2.512234   -1.810627    0.676293   -0.121136   -0.004522    0.014186
13
* Frequency(23) 1085.1732
C     1.326813    0.493186   -0.050102   -0.197378   -0.119631    0.037102
C     1.126008   -0.747870    0.159770   -0.124202    0.093986   -0.001978
N    -0.019624   -1.261183    0.347505    0.284631    0.002685   -0.028513
C    -1.175132   -0.434103    0.333008   -0.003358    0.037950   -0.005354
N    -1.024289    0.892408    0.114849   -0.124225    0.112897   -0.005363
C     0.352120    1.469052   -0.106468    0.197528   -0.022322   -0.015583
O    -2.423357   -0.850763    0.518978   -0.090139   -0.002900    0.009192
O     0.323947    2.649857   -0.285054   -0.043949   -0.067193    0.014612
H     2.132448   -1.265589    0.142065    0.527866    0.794703   -0.174813
H    -0.020849   -2.278006    0.506317    0.690101   -0.056566   -0.055149
H     2.502378    0.427902   -0.153892    0.297184   -1.441044    0.193416
H    -1.797554    1.573180    0.084271    0.023435    0.333206   -0.053773
H    -2.517840   -1.810836    0.676949   -0.121136   -0.004522    0.014186
13
* Frequency(23) 1085.1732
C     1.324935    0.492048   -0.049749   -0.197378   -0.119631    0.037102
C     1.124826   -0.746976    0.159751   -0.124202    0.093986   -0.001978
N    -0.016916   -1.261157    0.347234    0.284631    0.002685   -0.028513
C    -1.175164   -0.433742    0.332957   -0.003358    0.037950   -0.005354
N    -1.025471    0.893483    0.114798   -0.124225    0.112897   -0.005363
C     0.353999    1.468840   -0.106617    0.197528   -0.022322   -0.015583
O    -2.424215   -0.850791    0.519065   -0.090139   -0.002900    0.009192
O     0.323529    2.649217   -0.284915   -0.043949   -0.067193    0.014612
H     2.137470   -1.258028    0.140402    0.527866    0.794703   -0.174813
H    -0.014283   -2.278544    0.505792    0.690101   -0.056566   -0.055149
H     2.505206    0.414191   -0.152052    0.297184   -1.441044    0.193416
H    -1.797331    1.576350    0.083760    0.023435    0.333206   -0.053773
H    -2.518993   -1.810879    0.677084   -0.121136   -0.004522    0.014186
13
* Frequency(23) 1085.1732
C     1.330518    0.495432   -0.050799   -0.197378   -0.119631    0.037102
C     1.128339   -0.749634    0.159807   -0.124202    0.093986   -0.001978
N    -0.024967   -1.261233    0.348041    0.284631    0.002685   -0.028513
C    -1.175069   -0.434815    0.333108   -0.003358    0.037950   -0.005354
N    -1.021958    0.890289    0.114950   -0.124225    0.112897   -0.005363
C     0.348412    1.469471   -0.106176    0.197528   -0.022322   -0.015583
O    -2.421666   -0.850709    0.518805   -0.090139   -0.002900    0.009192
O     0.324772    2.651118   -0.285329   -0.043949   -0.067193    0.014612
H     2.122540   -1.280505    0.145347    0.527866    0.794703   -0.174813
H    -0.033802   -2.276944    0.507352    0.690101   -0.056566   -0.055149
H     2.496800    0.454949   -0.157523    0.297184   -1.441044    0.193416
H    -1.797993    1.566926    0.085281    0.023435    0.333206   -0.053773
H    -2.515566   -1.810751    0.676683   -0.121136   -0.004522    0.014186
13
* Frequency(23) 1085.1732
C     1.342956    0.502970   -0.053137   -0.197378   -0.119631    0.037102
C     1.136166   -0.755557    0.159932   -0.124202    0.093986   -0.001978
N    -0.042903   -1.261402    0.349837    0.284631    0.002685   -0.028513
C    -1.174858   -0.437207    0.333445   -0.003358    0.037950   -0.005354
N    -1.014129    0.883175    0.115288   -0.124225    0.112897   -0.005363
C     0.335964    1.470878   -0.105194    0.197528   -0.022322   -0.015583
O    -2.415985   -0.850526    0.518226   -0.090139   -0.002900    0.009192
O     0.327541    2.655352   -0.286249   -0.043949   -0.067193    0.014612
H     2.089275   -1.330585    0.156363    0.527866    0.794703   -0.174813
H    -0.077290   -2.273379    0.510827    0.690101   -0.056566   -0.055149
H     2.478072    0.545760   -0.169711    0.297184   -1.441044    0.193416
H    -1.799470    1.545928    0.088669    0.023435    0.333206   -0.053773
H    -2.507933   -1.810466    0.675789   -0.121136   -0.004522    0.014186
13
* Frequency(23) 1085.1732
C     1.360902    0.513847   -0.056510   -0.197378   -0.119631    0.037102
C     1.147459   -0.764102    0.160112   -0.124202    0.093986   -0.001978
N    -0.068783   -1.261647    0.352430    0.284631    0.002685   -0.028513
C    -1.174552   -0.440657    0.333932   -0.003358    0.037950   -0.005354
N    -1.002835    0.872910    0.115776   -0.124225    0.112897   -0.005363
C     0.318005    1.472907   -0.103777    0.197528   -0.022322   -0.015583
O    -2.407790   -0.850262    0.517390   -0.090139   -0.002900    0.009192
O     0.331537    2.661461   -0.287578   -0.043949   -0.067193    0.014612
H     2.041281   -1.402841    0.172257    0.527866    0.794703   -0.174813
H    -0.140035   -2.268236    0.515841    0.690101   -0.056566   -0.055149
H     2.451052    0.676782   -0.187297    0.297184   -1.441044    0.193416
H    -1.801601    1.515632    0.093558    0.023435    0.333206   -0.053773
H    -2.496919   -1.810055    0.674499   -0.121136   -0.004522    0.014186
13
* Frequency(23) 1085.1732
C     1.382411    0.526884   -0.060553   -0.197378   -0.119631    0.037102
C     1.160993   -0.774344    0.160327   -0.124202    0.093986   -0.001978
N    -0.099800   -1.261939    0.355537    0.284631    0.002685   -0.028513
C    -1.174186   -0.444793    0.334516   -0.003358    0.037950   -0.005354
N    -0.989297    0.860607    0.116360   -0.124225    0.112897   -0.005363
C     0.296479    1.475340   -0.102079    0.197528   -0.022322   -0.015583
O    -2.397967   -0.849946    0.516389   -0.090139   -0.002900    0.009192
O     0.336326    2.668784   -0.289170   -0.043949   -0.067193    0.014612
H     1.983758   -1.489443    0.191307    0.527866    0.794703   -0.174813
H    -0.215238   -2.262072    0.521851    0.690101   -0.056566   -0.055149
H     2.418667    0.833818   -0.208374    0.297184   -1.441044    0.193416
H    -1.804155    1.479322    0.099418    0.023435    0.333206   -0.053773
H    -2.483718   -1.809562    0.672953   -0.121136   -0.004522    0.014186
13
* Frequency(23) 1085.1732
C     1.405152    0.540667   -0.064828   -0.197378   -0.119631    0.037102
C     1.175303   -0.785173    0.160555   -0.124202    0.093986   -0.001978
N    -0.132594   -1.262249    0.358822    0.284631    0.002685   -0.028513
C    -1.173799   -0.449165    0.335133   -0.003358    0.037950   -0.005354
N    -0.974985    0.847600    0.116978   -0.124225    0.112897   -0.005363
C     0.273721    1.477912   -0.100284    0.197528   -0.022322   -0.015583
O    -2.387582   -0.849612    0.515330   -0.090139   -0.002900    0.009192
O     0.341390    2.676525   -0.290854   -0.043949   -0.067193    0.014612
H     1.922939   -1.581005    0.211448    0.527866    0.794703   -0.174813
H    -0.294749   -2.255555    0.528205    0.690101   -0.056566   -0.055149
H     2.384426    0.999849   -0.230659    0.297184   -1.441044    0.193416
H    -1.806855    1.440931    0.105614    0.023435    0.333206   -0.053773
H    -2.469761   -1.809041    0.671319   -0.121136   -0.004522    0.014186
13
* Frequency(23) 1085.1732
C     1.426661    0.553704   -0.068871   -0.197378   -0.119631    0.037102
C     1.188838   -0.795415    0.160771   -0.124202    0.093986   -0.001978
N    -0.163611   -1.262541    0.361929    0.284631    0.002685   -0.028513
C    -1.173433   -0.453301    0.335716   -0.003358    0.037950   -0.005354
N    -0.961447    0.835297    0.117562   -0.124225    0.112897   -0.005363
C     0.252195    1.480344   -0.098586    0.197528   -0.022322   -0.015583
O    -2.377759   -0.849296    0.514328   -0.090139   -0.002900    0.009192
O     0.346179    2.683848   -0.292446   -0.043949   -0.067193    0.014612
H     1.865416   -1.667607    0.230498    0.527866    0.794703   -0.174813
H    -0.369951   -2.249391    0.534215    0.690101   -0.056566   -0.055149
H     2.352041    1.156885   -0.251736    0.297184   -1.441044    0.193416
H    -1.809409    1.404620    0.111473    0.023435    0.333206   -0.053773
H    -2.456561   -1.808548    0.669773   -0.121136   -0.004522    0.014186
13
* Frequency(23) 1085.1732
C     1.444607    0.564581   -0.072244   -0.197378   -0.119631    0.037102
C     1.200131   -0.803960    0.160950   -0.124202    0.093986   -0.001978
N    -0.189490   -1.262785    0.364522    0.284631    0.002685   -0.028513
C    -1.173128   -0.456751    0.336203   -0.003358    0.037950   -0.005354
N    -0.950153    0.825032    0.118050   -0.124225    0.112897   -0.005363
C     0.234236    1.482374   -0.097169    0.197528   -0.022322   -0.015583
O    -2.369563   -0.849033    0.513492   -0.090139   -0.002900    0.009192
O     0.350175    2.689957   -0.293775   -0.043949   -0.067193    0.014612
H     1.817421   -1.739863    0.246393    0.527866    0.794703   -0.174813
H    -0.432696   -2.244248    0.539229    0.690101   -0.056566   -0.055149
H     2.325021    1.287907   -0.269322    0.297184   -1.441044    0.193416
H    -1.811539    1.374325    0.116362    0.023435    0.333206   -0.053773
H    -2.445547   -1.808137    0.668483   -0.121136   -0.004522    0.014186
13
* Frequency(23) 1085.1732
C     1.457045    0.572120   -0.074582   -0.197378   -0.119631    0.037102
C     1.207958   -0.809883    0.161075   -0.124202    0.093986   -0.001978
N    -0.207427   -1.262955    0.366318    0.284631    0.002685   -0.028513
C    -1.172917   -0.459143    0.336540   -0.003358    0.037950   -0.005354
N    -0.942324    0.817918    0.118388   -0.124225    0.112897   -0.005363
C     0.221788    1.483780   -0.096187    0.197528   -0.022322   -0.015583
O    -2.363883   -0.848850    0.512913   -0.090139   -0.002900    0.009192
O     0.352945    2.694191   -0.294695   -0.043949   -0.067193    0.014612
H     1.784156   -1.789943    0.257409    0.527866    0.794703   -0.174813
H    -0.476185   -2.240683    0.542704    0.690101   -0.056566   -0.055149
H     2.306293    1.378718   -0.281510    0.297184   -1.441044    0.193416
H    -1.813016    1.353327    0.119751    0.023435    0.333206   -0.053773
H    -2.437913   -1.807852    0.667589   -0.121136   -0.004522    0.014186
13
* Frequency(23) 1085.1732
C     1.462628    0.575504   -0.075632   -0.197378   -0.119631    0.037102
C     1.211470   -0.812541    0.161131   -0.124202    0.093986   -0.001978
N    -0.215477   -1.263030    0.367125    0.284631    0.002685   -0.028513
C    -1.172822   -0.460216    0.336692   -0.003358    0.037950   -0.005354
N    -0.938811    0.814725    0.118540   -0.124225    0.112897   -0.005363
C     0.216201    1.484412   -0.095746    0.197528   -0.022322   -0.015583
O    -2.361333   -0.848768    0.512653   -0.090139   -0.002900    0.009192
O     0.354188    2.696092   -0.295109   -0.043949   -0.067193    0.014612
H     1.769226   -1.812420    0.262353    0.527866    0.794703   -0.174813
H    -0.495704   -2.239083    0.544264    0.690101   -0.056566   -0.055149
H     2.297887    1.419476   -0.286981    0.297184   -1.441044    0.193416
H    -1.813679    1.343902    0.121272    0.023435    0.333206   -0.053773
H    -2.434487   -1.807724    0.667188   -0.121136   -0.004522    0.014186
13
* Frequency(23) 1085.1732
C     1.460750    0.574365   -0.075279   -0.197378   -0.119631    0.037102
C     1.210289   -0.811647    0.161112   -0.124202    0.093986   -0.001978
N    -0.212769   -1.263005    0.366854    0.284631    0.002685   -0.028513
C    -1.172853   -0.459855    0.336641   -0.003358    0.037950   -0.005354
N    -0.939993    0.815799    0.118489   -0.124225    0.112897   -0.005363
C     0.218081    1.484199   -0.095894    0.197528   -0.022322   -0.015583
O    -2.362191   -0.848795    0.512740   -0.090139   -0.002900    0.009192
O     0.353770    2.695453   -0.294970   -0.043949   -0.067193    0.014612
H     1.774249   -1.804859    0.260690    0.527866    0.794703   -0.174813
H    -0.489138   -2.239621    0.543740    0.690101   -0.056566   -0.055149
H     2.300715    1.405765   -0.285141    0.297184   -1.441044    0.193416
H    -1.813456    1.347073    0.120760    0.023435    0.333206   -0.053773
H    -2.435640   -1.807767    0.667323   -0.121136   -0.004522    0.014186
13
* Frequency(23) 1085.1732
C     1.451615    0.568829   -0.073562   -0.197378   -0.119631    0.037102
C     1.204540   -0.807297    0.161021   -0.124202    0.093986   -0.001978
N    -0.199596   -1.262881    0.365534    0.284631    0.002685   -0.028513
C    -1.173009   -0.458099    0.336393   -0.003358    0.037950   -0.005354
N    -0.945742    0.821024    0.118240   -0.124225    0.112897   -0.005363
C     0.227223    1.483166   -0.096616    0.197528   -0.022322   -0.015583
O    -2.366363   -0.848930    0.513166   -0.090139   -0.002900    0.009192
O     0.351736    2.692343   -0.294293   -0.043949   -0.067193    0.014612
H     1.798679   -1.768078    0.252599    0.527866    0.794703   -0.174813
H    -0.457198   -2.242239    0.541187    0.690101   -0.056566   -0.055149
H     2.314469    1.339071   -0.276189    0.297184   -1.441044    0.193416
H    -1.812372    1.362494    0.118272    0.023435    0.333206   -0.053773
H    -2.441246   -1.807977    0.667980   -0.121136   -0.004522    0.014186
13
* Frequency(23) 1085.1732
C     1.436213    0.559493   -0.070666   -0.197378   -0.119631    0.037102
C     1.194849   -0.799963    0.160866   -0.124202    0.093986   -0.001978
N    -0.177385   -1.262671    0.363309    0.284631    0.002685   -0.028513
C    -1.173271   -0.455137    0.335975   -0.003358    0.037950   -0.005354
N    -0.955436    0.829834    0.117822   -0.124225    0.112897   -0.005363
C     0.242636    1.481424   -0.097832    0.197528   -0.022322   -0.015583
O    -2.373397   -0.849156    0.513883   -0.090139   -0.002900    0.009192
O     0.348306    2.687099   -0.293153   -0.043949   -0.067193    0.014612
H     1.839871   -1.706065    0.238958    0.527866    0.794703   -0.174813
H    -0.403347   -2.246653    0.536884    0.690101   -0.056566   -0.055149
H     2.337660    1.226621   -0.261096    0.297184   -1.441044    0.193416
H    -1.810543    1.388495    0.114076    0.023435    0.333206   -0.053773
H    -2.450699   -1.808329    0.669086   -0.121136   -0.004522    0.014186
13
* Frequency(23) 1085.1732
C     1.416212    0.547371   -0.066907   -0.197378   -0.119631    0.037102
C     1.182263   -0.790439    0.160666   -0.124202    0.093986   -0.001978
N    -0.148544   -1.262399    0.360420    0.284631    0.002685   -0.028513
C    -1.173611   -0.451292    0.335433   -0.003358    0.037950   -0.005354
N    -0.968023    0.841274    0.117278   -0.124225    0.112897   -0.005363
C     0.262652    1.479163   -0.099411    0.197528   -0.022322   -0.015583
O    -2.382530   -0.849450    0.514814   -0.090139   -0.002900    0.009192
O     0.343853    2.680291   -0.291673   -0.043949   -0.067193    0.014612
H     1.893359   -1.625538    0.221244    0.527866    0.794703   -0.174813
H    -0.333420   -2.252385    0.531295    0.690101   -0.056566   -0.055149
H     2.367773    1.080601   -0.241497    0.297184   -1.441044    0.193416
H    -1.808168    1.422259    0.108627    0.023435    0.333206   -0.053773
H    -2.462973   -1.808788    0.670524   -0.121136   -0.004522    0.014186
13
* Frequency(23) 1085.1732
C     1.393781    0.533776   -0.062691   -0.197378   -0.119631    0.037102
C     1.168148   -0.779758    0.160441   -0.124202    0.093986   -0.001978
N    -0.116197   -1.262094    0.357179    0.284631    0.002685   -0.028513
C    -1.173993   -0.446979    0.334824   -0.003358    0.037950   -0.005354
N    -0.982141    0.854104    0.116669   -0.124225    0.112897   -0.005363
C     0.285100    1.476626   -0.101181    0.197528   -0.022322   -0.015583
O    -2.392774   -0.849779    0.515859   -0.090139   -0.002900    0.009192
O     0.338858    2.672655   -0.290012   -0.043949   -0.067193    0.014612
H     1.953348   -1.535224    0.201378    0.527866    0.794703   -0.174813
H    -0.254993   -2.258813    0.525028    0.690101   -0.056566   -0.055149
H     2.401547    0.916834   -0.219517    0.297184   -1.441044    0.193416
H    -1.805505    1.460126    0.102516    0.023435    0.333206   -0.053773
H    -2.476740   -1.809302    0.672136   -0.121136   -0.004522    0.014186
