13
* (null), Energy   -1000.0000000
C     1.646520    0.274089   -0.194207    0.002374   -0.005983   -0.036605
C     1.420577   -1.039677    0.025063    0.018428    0.027432    0.187905
N     0.135453   -1.525757    0.216409    0.008754    0.015112    0.107217
C    -0.924794   -0.711788    0.195329   -0.060211   -0.091293   -0.602771
N    -0.732121    0.590004   -0.024536   -0.008631   -0.002597   -0.034119
C     0.536344    1.216046   -0.237856    0.040163    0.065738    0.427088
O    -2.146146   -1.110315    0.377217    0.012762    0.019724    0.132226
O     0.589994    2.411153   -0.425909   -0.011977   -0.019522   -0.128091
H     2.206629   -1.794809    0.067952   -0.049796   -0.084809   -0.538235
H     0.004335   -2.526891    0.371768    0.007843    0.004366    0.038727
H     2.655430    0.658119   -0.342686   -0.118068   -0.214300   -1.396101
H    -1.554927    1.198215   -0.034522    0.094515    0.154884    0.997107
H    -2.238862   -2.064583    0.566301    0.042345    0.011661    0.107647
13
* Frequency(16)  719.9536
C     1.646790    0.273409   -0.198367    0.002374   -0.005983   -0.036605
C     1.422671   -1.036560    0.046418    0.018428    0.027432    0.187905
N     0.136448   -1.524039    0.228594    0.008754    0.015112    0.107217
C    -0.931637   -0.722162    0.126827   -0.060211   -0.091293   -0.602771
N    -0.733102    0.589709   -0.028414   -0.008631   -0.002597   -0.034119
C     0.540908    1.223516   -0.189320    0.040163    0.065738    0.427088
O    -2.144696   -1.108073    0.392244    0.012762    0.019724    0.132226
O     0.588633    2.408934   -0.440466   -0.011977   -0.019522   -0.128091
H     2.200970   -1.804447    0.006784   -0.049796   -0.084809   -0.538235
H     0.005227   -2.526394    0.376169    0.007843    0.004366    0.038727
H     2.642012    0.633765   -0.501346   -0.118068   -0.214300   -1.396101
H    -1.544186    1.215817    0.078794    0.094515    0.154884    0.997107
H    -2.234050   -2.063257    0.578535    0.042345    0.011661    0.107647
13
* Frequency(16)  719.9536
C     1.647030    0.272803   -0.202076    0.002374   -0.005983   -0.036605
C     1.424538   -1.033780    0.065458    0.018428    0.027432    0.187905
N     0.137335   -1.522508    0.239458    0.008754    0.015112    0.107217
C    -0.937738   -0.731413    0.065748   -0.060211   -0.091293   -0.602771
N    -0.733977    0.589446   -0.031871   -0.008631   -0.002597   -0.034119
C     0.544978    1.230178   -0.146043    0.040163    0.065738    0.427088
O    -2.143403   -1.106074    0.405643    0.012762    0.019724    0.132226
O     0.587419    2.406956   -0.453446   -0.011977   -0.019522   -0.128091
H     2.195924   -1.813041   -0.047755   -0.049796   -0.084809   -0.538235
H     0.006021   -2.525952    0.380093    0.007843    0.004366    0.038727
H     2.630048    0.612050   -0.642812   -0.118068   -0.214300   -1.396101
H    -1.534609    1.231511    0.179830    0.094515    0.154884    0.997107
H    -2.229759   -2.062076    0.589443    0.042345    0.011661    0.107647
13
* Frequency(16)  719.9536
C     1.647216    0.272336   -0.204933    0.002374   -0.005983   -0.036605
C     1.425976   -1.031639    0.080121    0.018428    0.027432    0.187905
N     0.138018   -1.521329    0.247824    0.008754    0.015112    0.107217
C    -0.942436   -0.738537    0.018712   -0.060211   -0.091293   -0.602771
N    -0.734650    0.589243   -0.034534   -0.008631   -0.002597   -0.034119
C     0.548112    1.235308   -0.112716    0.040163    0.065738    0.427088
O    -2.142407   -1.104535    0.415961    0.012762    0.019724    0.132226
O     0.586484    2.405433   -0.463441   -0.011977   -0.019522   -0.128091
H     2.192039   -1.819659   -0.089755   -0.049796   -0.084809   -0.538235
H     0.006633   -2.525611    0.383115    0.007843    0.004366    0.038727
H     2.620835    0.595327   -0.751755   -0.118068   -0.214300   -1.396101
H    -1.527233    1.243597    0.257638    0.094515    0.154884    0.997107
H    -2.226455   -2.061166    0.597843    0.042345    0.011661    0.107647
13
* Frequency(16)  719.9536
C     1.647325    0.272059   -0.206627    0.002374   -0.005983   -0.036605
C     1.426829   -1.030370    0.088818    0.018428    0.027432    0.187905
N     0.138423   -1.520629    0.252787    0.008754    0.015112    0.107217
C    -0.945223   -0.742762   -0.009186   -0.060211   -0.091293   -0.602771
N    -0.735050    0.589123   -0.036113   -0.008631   -0.002597   -0.034119
C     0.549971    1.238350   -0.092949    0.040163    0.065738    0.427088
O    -2.141816   -1.103622    0.422080    0.012762    0.019724    0.132226
O     0.585930    2.404529   -0.469369   -0.011977   -0.019522   -0.128091
H     2.189734   -1.823584   -0.114666   -0.049796   -0.084809   -0.538235
H     0.006996   -2.525409    0.384908    0.007843    0.004366    0.038727
H     2.615371    0.585409   -0.816369   -0.118068   -0.214300   -1.396101
H    -1.522859    1.250766    0.303786    0.094515    0.154884    0.997107
H    -2.224495   -2.060626    0.602825    0.042345    0.011661    0.107647
13
* Frequency(16)  719.9536
C     1.647348    0.272002   -0.206975    0.002374   -0.005983   -0.036605
C     1.427004   -1.030109    0.090606    0.018428    0.027432    0.187905
N     0.138506   -1.520486    0.253807    0.008754    0.015112    0.107217
C    -0.945796   -0.743631   -0.014921   -0.060211   -0.091293   -0.602771
N    -0.735132    0.589098   -0.036437   -0.008631   -0.002597   -0.034119
C     0.550353    1.238976   -0.088886    0.040163    0.065738    0.427088
O    -2.141695   -1.103435    0.423338    0.012762    0.019724    0.132226
O     0.585816    2.404344   -0.470588   -0.011977   -0.019522   -0.128091
H     2.189260   -1.824391   -0.119787   -0.049796   -0.084809   -0.538235
H     0.007071   -2.525368    0.385276    0.007843    0.004366    0.038727
H     2.614247    0.583370   -0.829652   -0.118068   -0.214300   -1.396101
H    -1.521960    1.252239    0.313273    0.094515    0.154884    0.997107
H    -2.224092   -2.060515    0.603849    0.042345    0.011661    0.107647
13
* Frequency(16)  719.9536
C     1.647281    0.272171   -0.205940    0.002374   -0.005983   -0.036605
C     1.426483   -1.030885    0.085291    0.018428    0.027432    0.187905
N     0.138259   -1.520913    0.250774    0.008754    0.015112    0.107217
C    -0.944093   -0.741049    0.002128   -0.060211   -0.091293   -0.602771
N    -0.734888    0.589172   -0.035472   -0.008631   -0.002597   -0.034119
C     0.549217    1.237116   -0.100965    0.040163    0.065738    0.427088
O    -2.142056   -1.103993    0.419599    0.012762    0.019724    0.132226
O     0.586155    2.404896   -0.466965   -0.011977   -0.019522   -0.128091
H     2.190669   -1.821992   -0.104564   -0.049796   -0.084809   -0.538235
H     0.006849   -2.525491    0.384181    0.007843    0.004366    0.038727
H     2.617587    0.589431   -0.790165   -0.118068   -0.214300   -1.396101
H    -1.524633    1.247859    0.285071    0.094515    0.154884    0.997107
H    -2.225290   -2.060845    0.600804    0.042345    0.011661    0.107647
13
* Frequency(16)  719.9536
C     1.647131    0.272548   -0.203633    0.002374   -0.005983   -0.036605
C     1.425322   -1.032613    0.073450    0.018428    0.027432    0.187905
N     0.137707   -1.521865    0.244018    0.008754    0.015112    0.107217
C    -0.940298   -0.735296    0.040113   -0.060211   -0.091293   -0.602771
N    -0.734344    0.589335   -0.033322   -0.008631   -0.002597   -0.034119
C     0.546686    1.232974   -0.127879    0.040163    0.065738    0.427088
O    -2.142860   -1.105236    0.411266    0.012762    0.019724    0.132226
O     0.586910    2.406126   -0.458893   -0.011977   -0.019522   -0.128091
H     2.193807   -1.816648   -0.070645   -0.049796   -0.084809   -0.538235
H     0.006355   -2.525766    0.381740    0.007843    0.004366    0.038727
H     2.625027    0.602936   -0.702187   -0.118068   -0.214300   -1.396101
H    -1.530589    1.238098    0.222236    0.094515    0.154884    0.997107
H    -2.227958   -2.061580    0.594021    0.042345    0.011661    0.107647
13
* Frequency(16)  719.9536
C     1.646915    0.273092   -0.200305    0.002374   -0.005983   -0.036605
C     1.423646   -1.035107    0.056365    0.018428    0.027432    0.187905
N     0.136911   -1.523239    0.234269    0.008754    0.015112    0.107217
C    -0.934824   -0.726995    0.094918   -0.060211   -0.091293   -0.602771
N    -0.733559    0.589572   -0.030220   -0.008631   -0.002597   -0.034119
C     0.543034    1.226996   -0.166711    0.040163    0.065738    0.427088
O    -2.144020   -1.107029    0.399244    0.012762    0.019724    0.132226
O     0.587999    2.407901   -0.447247   -0.011977   -0.019522   -0.128091
H     2.198334   -1.808937   -0.021708   -0.049796   -0.084809   -0.538235
H     0.005642   -2.526163    0.378219    0.007843    0.004366    0.038727
H     2.635762    0.622420   -0.575251   -0.118068   -0.214300   -1.396101
H    -1.539183    1.224016    0.131577    0.094515    0.154884    0.997107
H    -2.231809   -2.062640    0.584233    0.042345    0.011661    0.107647
13
* Frequency(16)  719.9536
C     1.646657    0.273744   -0.196316    0.002374   -0.005983   -0.036605
C     1.421638   -1.038097    0.035888    0.018428    0.027432    0.187905
N     0.135957   -1.524886    0.222585    0.008754    0.015112    0.107217
C    -0.928263   -0.717047    0.160604   -0.060211   -0.091293   -0.602771
N    -0.732618    0.589855   -0.026502   -0.008631   -0.002597   -0.034119
C     0.538658    1.219833   -0.213252    0.040163    0.065738    0.427088
O    -2.145411   -1.109178    0.384835    0.012762    0.019724    0.132226
O     0.589304    2.410028   -0.433288   -0.011977   -0.019522   -0.128091
H     2.203761   -1.799695    0.036945   -0.049796   -0.084809   -0.538235
H     0.004787   -2.526639    0.373999    0.007843    0.004366    0.038727
H     2.648628    0.645773   -0.423113   -0.118068   -0.214300   -1.396101
H    -1.549482    1.207138    0.022919    0.094515    0.154884    0.997107
H    -2.236423   -2.063911    0.572503    0.042345    0.011661    0.107647
13
* Frequency(16)  719.9536
C     1.646383    0.274434   -0.192098    0.002374   -0.005983   -0.036605
C     1.419515   -1.041257    0.014239    0.018428    0.027432    0.187905
N     0.134949   -1.526627    0.210232    0.008754    0.015112    0.107217
C    -0.921325   -0.706528    0.230053   -0.060211   -0.091293   -0.602771
N    -0.731624    0.590154   -0.022571   -0.008631   -0.002597   -0.034119
C     0.534030    1.212259   -0.262460    0.040163    0.065738    0.427088
O    -2.146881   -1.111451    0.369600    0.012762    0.019724    0.132226
O     0.590684    2.412277   -0.418530   -0.011977   -0.019522   -0.128091
H     2.209498   -1.789923    0.098959   -0.049796   -0.084809   -0.538235
H     0.003883   -2.527142    0.369537    0.007843    0.004366    0.038727
H     2.662232    0.670464   -0.262259   -0.118068   -0.214300   -1.396101
H    -1.560372    1.189292   -0.091964    0.094515    0.154884    0.997107
H    -2.241302   -2.065254    0.560100    0.042345    0.011661    0.107647
13
* Frequency(16)  719.9536
C     1.646125    0.275086   -0.188109    0.002374   -0.005983   -0.036605
C     1.417507   -1.044247   -0.006238    0.018428    0.027432    0.187905
N     0.133995   -1.528274    0.198548    0.008754    0.015112    0.107217
C    -0.914764   -0.696580    0.295739   -0.060211   -0.091293   -0.602771
N    -0.730683    0.590437   -0.018853   -0.008631   -0.002597   -0.034119
C     0.529653    1.205095   -0.309001    0.040163    0.065738    0.427088
O    -2.148272   -1.113600    0.355191    0.012762    0.019724    0.132226
O     0.591989    2.414405   -0.404572   -0.011977   -0.019522   -0.128091
H     2.214924   -1.780681    0.157612   -0.049796   -0.084809   -0.538235
H     0.003029   -2.527618    0.365317    0.007843    0.004366    0.038727
H     2.675098    0.693817   -0.110121   -0.118068   -0.214300   -1.396101
H    -1.570671    1.172414   -0.200622    0.094515    0.154884    0.997107
H    -2.245916   -2.066525    0.548369    0.042345    0.011661    0.107647
13
* Frequency(16)  719.9536
C     1.645909    0.275630   -0.184781    0.002374   -0.005983   -0.036605
C     1.415831   -1.046741   -0.023323    0.018428    0.027432    0.187905
N     0.133199   -1.529648    0.188800    0.008754    0.015112    0.107217
C    -0.909290   -0.688279    0.350544   -0.060211   -0.091293   -0.602771
N    -0.729899    0.590673   -0.015751   -0.008631   -0.002597   -0.034119
C     0.526002    1.199118   -0.347833    0.040163    0.065738    0.427088
O    -2.149432   -1.115394    0.343169    0.012762    0.019724    0.132226
O     0.593078    2.416180   -0.392925   -0.011977   -0.019522   -0.128091
H     2.219452   -1.772970    0.206549   -0.049796   -0.084809   -0.538235
H     0.002316   -2.528015    0.361796    0.007843    0.004366    0.038727
H     2.685833    0.713302    0.016815   -0.118068   -0.214300   -1.396101
H    -1.579265    1.158332   -0.291281    0.094515    0.154884    0.997107
H    -2.249766   -2.067585    0.538582    0.042345    0.011661    0.107647
13
* Frequency(16)  719.9536
C     1.645759    0.276007   -0.182474    0.002374   -0.005983   -0.036605
C     1.414670   -1.048470   -0.035164    0.018428    0.027432    0.187905
N     0.132647   -1.530600    0.182043    0.008754    0.015112    0.107217
C    -0.905495   -0.682526    0.388529   -0.060211   -0.091293   -0.602771
N    -0.729355    0.590837   -0.013601   -0.008631   -0.002597   -0.034119
C     0.523471    1.194975   -0.374747    0.040163    0.065738    0.427088
O    -2.150237   -1.116637    0.334836    0.012762    0.019724    0.132226
O     0.593833    2.417410   -0.384853   -0.011977   -0.019522   -0.128091
H     2.222590   -1.767626    0.240467   -0.049796   -0.084809   -0.538235
H     0.001821   -2.528290    0.359355    0.007843    0.004366    0.038727
H     2.693273    0.726806    0.104793   -0.118068   -0.214300   -1.396101
H    -1.585221    1.148571   -0.354116    0.094515    0.154884    0.997107
H    -2.252435   -2.068320    0.531798    0.042345    0.011661    0.107647
13
* Frequency(16)  719.9536
C     1.645692    0.276176   -0.181439    0.002374   -0.005983   -0.036605
C     1.414149   -1.049246   -0.040479    0.018428    0.027432    0.187905
N     0.132399   -1.531028    0.179011    0.008754    0.015112    0.107217
C    -0.903792   -0.679944    0.405578   -0.060211   -0.091293   -0.602771
N    -0.729111    0.590910   -0.012636   -0.008631   -0.002597   -0.034119
C     0.522335    1.193116   -0.386826    0.040163    0.065738    0.427088
O    -2.150598   -1.117195    0.331096    0.012762    0.019724    0.132226
O     0.594171    2.417962   -0.381231   -0.011977   -0.019522   -0.128091
H     2.223998   -1.765227    0.255691   -0.049796   -0.084809   -0.538235
H     0.001600   -2.528414    0.358260    0.007843    0.004366    0.038727
H     2.696612    0.732867    0.144280   -0.118068   -0.214300   -1.396101
H    -1.587894    1.144191   -0.382318    0.094515    0.154884    0.997107
H    -2.253633   -2.068650    0.528754    0.042345    0.011661    0.107647
13
* Frequency(16)  719.9536
C     1.645715    0.276119   -0.181787    0.002374   -0.005983   -0.036605
C     1.414324   -1.048985   -0.038691    0.018428    0.027432    0.187905
N     0.132483   -1.530884    0.180031    0.008754    0.015112    0.107217
C    -0.904365   -0.680813    0.399843   -0.060211   -0.091293   -0.602771
N    -0.729193    0.590885   -0.012960   -0.008631   -0.002597   -0.034119
C     0.522717    1.193741   -0.382763    0.040163    0.065738    0.427088
O    -2.150476   -1.117007    0.332355    0.012762    0.019724    0.132226
O     0.594057    2.417776   -0.382449   -0.011977   -0.019522   -0.128091
H     2.223524   -1.766034    0.250570   -0.049796   -0.084809   -0.538235
H     0.001674   -2.528372    0.358628    0.007843    0.004366    0.038727
H     2.695489    0.730828    0.130997   -0.118068   -0.214300   -1.396101
H    -1.586995    1.145664   -0.372831    0.094515    0.154884    0.997107
H    -2.253230   -2.068539    0.529778    0.042345    0.011661    0.107647
13
* Frequency(16)  719.9536
C     1.645825    0.275842   -0.183482    0.002374   -0.005983   -0.036605
C     1.415177   -1.047715   -0.029994    0.018428    0.027432    0.187905
N     0.132888   -1.530185    0.184993    0.008754    0.015112    0.107217
C    -0.907152   -0.685038    0.371946   -0.060211   -0.091293   -0.602771
N    -0.729592    0.590765   -0.014539   -0.008631   -0.002597   -0.034119
C     0.524576    1.196784   -0.362996    0.040163    0.065738    0.427088
O    -2.149886   -1.116094    0.338474    0.012762    0.019724    0.132226
O     0.593503    2.416873   -0.388378   -0.011977   -0.019522   -0.128091
H     2.221220   -1.769959    0.225659   -0.049796   -0.084809   -0.538235
H     0.002037   -2.528170    0.360421    0.007843    0.004366    0.038727
H     2.690025    0.720910    0.066383   -0.118068   -0.214300   -1.396101
H    -1.582621    1.152833   -0.326683    0.094515    0.154884    0.997107
H    -2.251270   -2.067999    0.534760    0.042345    0.011661    0.107647
13
* Frequency(16)  719.9536
C     1.646010    0.275375   -0.186338    0.002374   -0.005983   -0.036605
C     1.416615   -1.045574   -0.015331    0.018428    0.027432    0.187905
N     0.133571   -1.529005    0.193360    0.008754    0.015112    0.107217
C    -0.911850   -0.692162    0.324909   -0.060211   -0.091293   -0.602771
N    -0.730266    0.590563   -0.017202   -0.008631   -0.002597   -0.034119
C     0.527710    1.201914   -0.329669    0.040163    0.065738    0.427088
O    -2.148890   -1.114555    0.348792    0.012762    0.019724    0.132226
O     0.592569    2.415349   -0.398373   -0.011977   -0.019522   -0.128091
H     2.217334   -1.776577    0.183659   -0.049796   -0.084809   -0.538235
H     0.002649   -2.527829    0.363443    0.007843    0.004366    0.038727
H     2.680811    0.704188   -0.042560   -0.118068   -0.214300   -1.396101
H    -1.575245    1.164919   -0.248875    0.094515    0.154884    0.997107
H    -2.247966   -2.067090    0.543160    0.042345    0.011661    0.107647
13
* Frequency(16)  719.9536
C     1.646250    0.274769   -0.190047    0.002374   -0.005983   -0.036605
C     1.418482   -1.042795    0.003709    0.018428    0.027432    0.187905
N     0.134458   -1.527474    0.204224    0.008754    0.015112    0.107217
C    -0.917951   -0.701413    0.263831   -0.060211   -0.091293   -0.602771
N    -0.731140    0.590299   -0.020659   -0.008631   -0.002597   -0.034119
C     0.531780    1.208575   -0.286392    0.040163    0.065738    0.427088
O    -2.147596   -1.112556    0.362191    0.012762    0.019724    0.132226
O     0.591355    2.413371   -0.411352   -0.011977   -0.019522   -0.128091
H     2.212288   -1.785171    0.129119   -0.049796   -0.084809   -0.538235
H     0.003444   -2.527387    0.367367    0.007843    0.004366    0.038727
H     2.668848    0.682473   -0.184026   -0.118068   -0.214300   -1.396101
H    -1.565668    1.180613   -0.147838    0.094515    0.154884    0.997107
H    -2.243675   -2.065908    0.554068    0.042345    0.011661    0.107647
13
* Frequency(16)  719.9536
C     1.646520    0.274089   -0.194207    0.002374   -0.005983   -0.036605
C     1.420577   -1.039677    0.025063    0.018428    0.027432    0.187905
N     0.135453   -1.525757    0.216409    0.008754    0.015112    0.107217
C    -0.924794   -0.711788    0.195329   -0.060211   -0.091293   -0.602771
N    -0.732121    0.590004   -0.024536   -0.008631   -0.002597   -0.034119
C     0.536344    1.216046   -0.237856    0.040163    0.065738    0.427088
O    -2.146146   -1.110315    0.377217    0.012762    0.019724    0.132226
O     0.589994    2.411153   -0.425909   -0.011977   -0.019522   -0.128091
H     2.206629   -1.794809    0.067952   -0.049796   -0.084809   -0.538235
H     0.004335   -2.526891    0.371768    0.007843    0.004366    0.038727
H     2.655430    0.658119   -0.342686   -0.118068   -0.214300   -1.396101
H    -1.554927    1.198215   -0.034522    0.094515    0.154884    0.997107
H    -2.238862   -2.064583    0.566301    0.042345    0.011661    0.107647
