13
* (null), Energy   -1000.0000000
C     1.646520    0.274089   -0.194207    0.579841    0.039983   -0.055007
C     1.420577   -1.039677    0.025063   -0.259748    0.149731    0.000307
N     0.135453   -1.525757    0.216409   -0.089352   -0.167857    0.030680
C    -0.924794   -0.711788    0.195329    0.092538   -0.075368    0.008194
N    -0.732121    0.590004   -0.024536   -0.577118   -0.035557    0.060545
C     0.536344    1.216046   -0.237856    0.042876    0.057056   -0.018238
O    -2.146146   -1.110315    0.377217    0.275112    0.130088   -0.048776
O     0.589994    2.411153   -0.425909    0.019776    0.002996   -0.000595
H     2.206629   -1.794809    0.067952   -0.500913   -0.079822    0.063631
H     0.004335   -2.526891    0.371768    0.019603   -0.189621    0.038352
H     2.655430    0.658119   -0.342686    0.890723   -0.658832    0.004594
H    -1.554927    1.198215   -0.034522   -1.024084   -0.610626    0.180018
H    -2.238862   -2.064583    0.566301   -0.232312    0.210831    0.000857
13
* Frequency(20)  966.5058
C     1.712416    0.278633   -0.200458    0.579841    0.039983   -0.055007
C     1.391058   -1.022661    0.025098   -0.259748    0.149731    0.000307
N     0.125299   -1.544833    0.219896   -0.089352   -0.167857    0.030680
C    -0.914278   -0.720353    0.196260    0.092538   -0.075368    0.008194
N    -0.797708    0.585963   -0.017656   -0.577118   -0.035557    0.060545
C     0.541217    1.222530   -0.239929    0.042876    0.057056   -0.018238
O    -2.114881   -1.095531    0.371674    0.275112    0.130088   -0.048776
O     0.592241    2.411493   -0.425977    0.019776    0.002996   -0.000595
H     2.149703   -1.803880    0.075183   -0.500913   -0.079822    0.063631
H     0.006563   -2.548440    0.376127    0.019603   -0.189621    0.038352
H     2.756656    0.583246   -0.342164    0.890723   -0.658832    0.004594
H    -1.671309    1.128821   -0.014064   -1.024084   -0.610626    0.180018
H    -2.265263   -2.040623    0.566399   -0.232312    0.210831    0.000857
13
* Frequency(20)  966.5058
C     1.771171    0.282684   -0.206032    0.579841    0.039983   -0.055007
C     1.364738   -1.007489    0.025130   -0.259748    0.149731    0.000307
N     0.116245   -1.561842    0.223004   -0.089352   -0.167857    0.030680
C    -0.904901   -0.727990    0.197090    0.092538   -0.075368    0.008194
N    -0.856187    0.582360   -0.011521   -0.577118   -0.035557    0.060545
C     0.545561    1.228311   -0.241777    0.042876    0.057056   -0.018238
O    -2.087004   -1.082349    0.366732    0.275112    0.130088   -0.048776
O     0.594245    2.411797   -0.426037    0.019776    0.002996   -0.000595
H     2.098946   -1.811969    0.081631   -0.500913   -0.079822    0.063631
H     0.008549   -2.567654    0.380013    0.019603   -0.189621    0.038352
H     2.846913    0.516487   -0.341698    0.890723   -0.658832    0.004594
H    -1.775079    1.066946    0.004177   -1.024084   -0.610626    0.180018
H    -2.288804   -2.019259    0.566486   -0.232312    0.210831    0.000857
13
* Frequency(20)  966.5058
C     1.816418    0.285804   -0.210325    0.579841    0.039983   -0.055007
C     1.344469   -0.995805    0.025154   -0.259748    0.149731    0.000307
N     0.109272   -1.574940    0.225398   -0.089352   -0.167857    0.030680
C    -0.897680   -0.733871    0.197730    0.092538   -0.075368    0.008194
N    -0.901221    0.579586   -0.006796   -0.577118   -0.035557    0.060545
C     0.548907    1.232764   -0.243200    0.042876    0.057056   -0.018238
O    -2.065536   -1.072198    0.362926    0.275112    0.130088   -0.048776
O     0.595788    2.412031   -0.426084    0.019776    0.002996   -0.000595
H     2.059858   -1.818197    0.086596   -0.500913   -0.079822    0.063631
H     0.010079   -2.582451    0.383006    0.019603   -0.189621    0.038352
H     2.916419    0.465075   -0.341340    0.890723   -0.658832    0.004594
H    -1.854992    1.019297    0.018225   -1.024084   -0.610626    0.180018
H    -2.306932   -2.002808    0.566553   -0.232312    0.210831    0.000857
13
* Frequency(20)  966.5058
C     1.843254    0.287655   -0.212871    0.579841    0.039983   -0.055007
C     1.332447   -0.988875    0.025168   -0.259748    0.149731    0.000307
N     0.105137   -1.582709    0.226818   -0.089352   -0.167857    0.030680
C    -0.893397   -0.737359    0.198109    0.092538   -0.075368    0.008194
N    -0.927931    0.577940   -0.003994   -0.577118   -0.035557    0.060545
C     0.550891    1.235404   -0.244044    0.042876    0.057056   -0.018238
O    -2.052803   -1.066177    0.360668    0.275112    0.130088   -0.048776
O     0.596704    2.412169   -0.426111    0.019776    0.002996   -0.000595
H     2.036674   -1.821892    0.089541   -0.500913   -0.079822    0.063631
H     0.010986   -2.591227    0.384781    0.019603   -0.189621    0.038352
H     2.957643    0.434583   -0.341127    0.890723   -0.658832    0.004594
H    -1.902388    0.991036    0.026556   -1.024084   -0.610626    0.180018
H    -2.317683   -1.993050    0.566592   -0.232312    0.210831    0.000857
13
* Frequency(20)  966.5058
C     1.848771    0.288035   -0.213394    0.579841    0.039983   -0.055007
C     1.329976   -0.987450    0.025171   -0.259748    0.149731    0.000307
N     0.104287   -1.584306    0.227110   -0.089352   -0.167857    0.030680
C    -0.892516   -0.738076    0.198187    0.092538   -0.075368    0.008194
N    -0.933422    0.577602   -0.003418   -0.577118   -0.035557    0.060545
C     0.551299    1.235947   -0.244218    0.042876    0.057056   -0.018238
O    -2.050186   -1.064939    0.360204    0.275112    0.130088   -0.048776
O     0.596892    2.412198   -0.426117    0.019776    0.002996   -0.000595
H     2.031909   -1.822651    0.090146   -0.500913   -0.079822    0.063631
H     0.011173   -2.593031    0.385145    0.019603   -0.189621    0.038352
H     2.966118    0.428315   -0.341083    0.890723   -0.658832    0.004594
H    -1.912132    0.985226    0.028269   -1.024084   -0.610626    0.180018
H    -2.319894   -1.991044    0.566600   -0.232312    0.210831    0.000857
13
* Frequency(20)  966.5058
C     1.832371    0.286904   -0.211838    0.579841    0.039983   -0.055007
C     1.337322   -0.991685    0.025162   -0.259748    0.149731    0.000307
N     0.106814   -1.579558    0.226242   -0.089352   -0.167857    0.030680
C    -0.895134   -0.735944    0.197955    0.092538   -0.075368    0.008194
N    -0.917099    0.578607   -0.005131   -0.577118   -0.035557    0.060545
C     0.550087    1.234333   -0.243702    0.042876    0.057056   -0.018238
O    -2.057967   -1.068619    0.361584    0.275112    0.130088   -0.048776
O     0.596332    2.412113   -0.426100    0.019776    0.002996   -0.000595
H     2.046076   -1.820394    0.088347   -0.500913   -0.079822    0.063631
H     0.010618   -2.587668    0.384061    0.019603   -0.189621    0.038352
H     2.940925    0.446949   -0.341213    0.890723   -0.658832    0.004594
H    -1.883167    1.002497    0.023177   -1.024084   -0.610626    0.180018
H    -2.313323   -1.997007    0.566576   -0.232312    0.210831    0.000857
13
* Frequency(20)  966.5058
C     1.795831    0.284385   -0.208372    0.579841    0.039983   -0.055007
C     1.353691   -1.001121    0.025143   -0.259748    0.149731    0.000307
N     0.112445   -1.568980    0.224309   -0.089352   -0.167857    0.030680
C    -0.900965   -0.731195    0.197439    0.092538   -0.075368    0.008194
N    -0.880731    0.580848   -0.008946   -0.577118   -0.035557    0.060545
C     0.547385    1.230738   -0.242552    0.042876    0.057056   -0.018238
O    -2.075304   -1.076816    0.364657    0.275112    0.130088   -0.048776
O     0.595086    2.411924   -0.426062    0.019776    0.002996   -0.000595
H     2.077642   -1.815363    0.084337   -0.500913   -0.079822    0.063631
H     0.009383   -2.575719    0.381644    0.019603   -0.189621    0.038352
H     2.884794    0.488467   -0.341503    0.890723   -0.658832    0.004594
H    -1.818632    1.040977    0.011833   -1.024084   -0.610626    0.180018
H    -2.298683   -2.010293    0.566522   -0.232312    0.210831    0.000857
13
* Frequency(20)  966.5058
C     1.743111    0.280749   -0.203370    0.579841    0.039983   -0.055007
C     1.377308   -1.014735    0.025115   -0.259748    0.149731    0.000307
N     0.120569   -1.553719    0.221520   -0.089352   -0.167857    0.030680
C    -0.909379   -0.724342    0.196694    0.092538   -0.075368    0.008194
N    -0.828258    0.584081   -0.014451   -0.577118   -0.035557    0.060545
C     0.543486    1.225550   -0.240894    0.042876    0.057056   -0.018238
O    -2.100318   -1.088644    0.369092    0.275112    0.130088   -0.048776
O     0.593288    2.411652   -0.426008    0.019776    0.002996   -0.000595
H     2.123186   -1.808106    0.078552   -0.500913   -0.079822    0.063631
H     0.007601   -2.558478    0.378157    0.019603   -0.189621    0.038352
H     2.803808    0.548369   -0.341921    0.890723   -0.658832    0.004594
H    -1.725520    1.096496   -0.004535   -1.024084   -0.610626    0.180018
H    -2.277561   -2.029462    0.566444   -0.232312    0.210831    0.000857
13
* Frequency(20)  966.5058
C     1.679924    0.276392   -0.197376    0.579841    0.039983   -0.055007
C     1.405613   -1.031051    0.025081   -0.259748    0.149731    0.000307
N     0.130306   -1.535427    0.218176   -0.089352   -0.167857    0.030680
C    -0.919463   -0.716129    0.195801    0.092538   -0.075368    0.008194
N    -0.765368    0.587956   -0.021049   -0.577118   -0.035557    0.060545
C     0.538814    1.219333   -0.238907    0.042876    0.057056   -0.018238
O    -2.130297   -1.102820    0.374408    0.275112    0.130088   -0.048776
O     0.591133    2.411325   -0.425944    0.019776    0.002996   -0.000595
H     2.177773   -1.799407    0.071617   -0.500913   -0.079822    0.063631
H     0.005465   -2.537814    0.373977    0.019603   -0.189621    0.038352
H     2.706743    0.620165   -0.342421    0.890723   -0.658832    0.004594
H    -1.613922    1.163038   -0.024152   -1.024084   -0.610626    0.180018
H    -2.252245   -2.052437    0.566351   -0.232312    0.210831    0.000857
13
* Frequency(20)  966.5058
C     1.613117    0.271785   -0.191038    0.579841    0.039983   -0.055007
C     1.435540   -1.048303    0.025046   -0.259748    0.149731    0.000307
N     0.140600   -1.516087    0.214641   -0.089352   -0.167857    0.030680
C    -0.930125   -0.707446    0.194857    0.092538   -0.075368    0.008194
N    -0.698874    0.592053   -0.028024   -0.577118   -0.035557    0.060545
C     0.533874    1.212759   -0.236805    0.042876    0.057056   -0.018238
O    -2.161995   -1.117809    0.380027    0.275112    0.130088   -0.048776
O     0.588855    2.410980   -0.425875    0.019776    0.002996   -0.000595
H     2.235486   -1.790211    0.064286   -0.500913   -0.079822    0.063631
H     0.003206   -2.515967    0.369559    0.019603   -0.189621    0.038352
H     2.604117    0.696073   -0.342951    0.890723   -0.658832    0.004594
H    -1.495931    1.233392   -0.044893   -1.024084   -0.610626    0.180018
H    -2.225479   -2.076728    0.566252   -0.232312    0.210831    0.000857
13
* Frequency(20)  966.5058
C     1.549929    0.267428   -0.185044    0.579841    0.039983   -0.055007
C     1.463846   -1.064620    0.025012   -0.259748    0.149731    0.000307
N     0.150337   -1.497795    0.211298   -0.089352   -0.167857    0.030680
C    -0.940209   -0.699233    0.193964    0.092538   -0.075368    0.008194
N    -0.635984    0.595927   -0.034622   -0.577118   -0.035557    0.060545
C     0.529202    1.206541   -0.234818    0.042876    0.057056   -0.018238
O    -2.191975   -1.131985    0.385343    0.275112    0.130088   -0.048776
O     0.586699    2.410654   -0.425810    0.019776    0.002996   -0.000595
H     2.290072   -1.781512    0.057352   -0.500913   -0.079822    0.063631
H     0.001070   -2.495303    0.365379    0.019603   -0.189621    0.038352
H     2.507052    0.767868   -0.343451    0.890723   -0.658832    0.004594
H    -1.384333    1.299934   -0.064510   -1.024084   -0.610626    0.180018
H    -2.200164   -2.099703    0.566159   -0.232312    0.210831    0.000857
13
* Frequency(20)  966.5058
C     1.497209    0.263793   -0.180043    0.579841    0.039983   -0.055007
C     1.487463   -1.078233    0.024984   -0.259748    0.149731    0.000307
N     0.158461   -1.482533    0.208509   -0.089352   -0.167857    0.030680
C    -0.948623   -0.692380    0.193219    0.092538   -0.075368    0.008194
N    -0.583511    0.599160   -0.040127   -0.577118   -0.035557    0.060545
C     0.525303    1.201354   -0.233160    0.042876    0.057056   -0.018238
O    -2.216988   -1.143813    0.389778    0.275112    0.130088   -0.048776
O     0.584901    2.410381   -0.425756    0.019776    0.002996   -0.000595
H     2.335616   -1.774255    0.051567   -0.500913   -0.079822    0.063631
H    -0.000712   -2.478063    0.361892    0.019603   -0.189621    0.038352
H     2.426066    0.827770   -0.343869    0.890723   -0.658832    0.004594
H    -1.291222    1.355453   -0.080878   -1.024084   -0.610626    0.180018
H    -2.179041   -2.118872    0.566081   -0.232312    0.210831    0.000857
13
* Frequency(20)  966.5058
C     1.460669    0.261273   -0.176576    0.579841    0.039983   -0.055007
C     1.503831   -1.087669    0.024965   -0.259748    0.149731    0.000307
N     0.164092   -1.471955    0.206575   -0.089352   -0.167857    0.030680
C    -0.954454   -0.687631    0.192702    0.092538   -0.075368    0.008194
N    -0.547143    0.601401   -0.043942   -0.577118   -0.035557    0.060545
C     0.522601    1.197758   -0.232010    0.042876    0.057056   -0.018238
O    -2.234325   -1.152011    0.392851    0.275112    0.130088   -0.048776
O     0.583655    2.410193   -0.425719    0.019776    0.002996   -0.000595
H     2.367182   -1.769225    0.047557   -0.500913   -0.079822    0.063631
H    -0.001948   -2.466113    0.359475    0.019603   -0.189621    0.038352
H     2.369935    0.869288   -0.344159    0.890723   -0.658832    0.004594
H    -1.226687    1.393933   -0.092222   -1.024084   -0.610626    0.180018
H    -2.164402   -2.132158    0.566027   -0.232312    0.210831    0.000857
13
* Frequency(20)  966.5058
C     1.444269    0.260143   -0.175020    0.579841    0.039983   -0.055007
C     1.511178   -1.091904    0.024956   -0.259748    0.149731    0.000307
N     0.166619   -1.467207    0.205708   -0.089352   -0.167857    0.030680
C    -0.957072   -0.685499    0.192471    0.092538   -0.075368    0.008194
N    -0.530820    0.602407   -0.045655   -0.577118   -0.035557    0.060545
C     0.521389    1.196144   -0.231494    0.042876    0.057056   -0.018238
O    -2.242106   -1.155690    0.394231    0.275112    0.130088   -0.048776
O     0.583096    2.410108   -0.425702    0.019776    0.002996   -0.000595
H     2.381350   -1.766967    0.045757   -0.500913   -0.079822    0.063631
H    -0.002502   -2.460750    0.358391    0.019603   -0.189621    0.038352
H     2.344742    0.887922   -0.344288    0.890723   -0.658832    0.004594
H    -1.197722    1.411204   -0.097314   -1.024084   -0.610626    0.180018
H    -2.157831   -2.138121    0.566003   -0.232312    0.210831    0.000857
13
* Frequency(20)  966.5058
C     1.449786    0.260523   -0.175544    0.579841    0.039983   -0.055007
C     1.508706   -1.090479    0.024959   -0.259748    0.149731    0.000307
N     0.165769   -1.468805    0.205999   -0.089352   -0.167857    0.030680
C    -0.956191   -0.686216    0.192549    0.092538   -0.075368    0.008194
N    -0.536311    0.602068   -0.045079   -0.577118   -0.035557    0.060545
C     0.521797    1.196687   -0.231668    0.042876    0.057056   -0.018238
O    -2.239489   -1.154452    0.393767    0.275112    0.130088   -0.048776
O     0.583284    2.410136   -0.425708    0.019776    0.002996   -0.000595
H     2.376584   -1.767726    0.046363   -0.500913   -0.079822    0.063631
H    -0.002316   -2.462554    0.358755    0.019603   -0.189621    0.038352
H     2.353217    0.881654   -0.344245    0.890723   -0.658832    0.004594
H    -1.207465    1.405394   -0.095601   -1.024084   -0.610626    0.180018
H    -2.160041   -2.136115    0.566011   -0.232312    0.210831    0.000857
13
* Frequency(20)  966.5058
C     1.476622    0.262374   -0.178090    0.579841    0.039983   -0.055007
C     1.496685   -1.083550    0.024973   -0.259748    0.149731    0.000307
N     0.161634   -1.476573    0.207419   -0.089352   -0.167857    0.030680
C    -0.951908   -0.689704    0.192928    0.092538   -0.075368    0.008194
N    -0.563021    0.600423   -0.042276   -0.577118   -0.035557    0.060545
C     0.523781    1.199328   -0.232512    0.042876    0.057056   -0.018238
O    -2.226756   -1.148432    0.391509    0.275112    0.130088   -0.048776
O     0.584199    2.410275   -0.425735    0.019776    0.002996   -0.000595
H     2.353401   -1.771421    0.049308   -0.500913   -0.079822    0.063631
H    -0.001408   -2.471330    0.360530    0.019603   -0.189621    0.038352
H     2.394441    0.851162   -0.344032    0.890723   -0.658832    0.004594
H    -1.254862    1.377133   -0.087269   -1.024084   -0.610626    0.180018
H    -2.170793   -2.126358    0.566050   -0.232312    0.210831    0.000857
13
* Frequency(20)  966.5058
C     1.521869    0.265494   -0.182382    0.579841    0.039983   -0.055007
C     1.476416   -1.071865    0.024997   -0.259748    0.149731    0.000307
N     0.154661   -1.489672    0.209813   -0.089352   -0.167857    0.030680
C    -0.944687   -0.695585    0.193567    0.092538   -0.075368    0.008194
N    -0.608056    0.597648   -0.037552   -0.577118   -0.035557    0.060545
C     0.527127    1.203780   -0.233935    0.042876    0.057056   -0.018238
O    -2.205288   -1.138280    0.387703    0.275112    0.130088   -0.048776
O     0.585742    2.410509   -0.425781    0.019776    0.002996   -0.000595
H     2.314313   -1.777649    0.054273   -0.500913   -0.079822    0.063631
H     0.000121   -2.486127    0.363523    0.019603   -0.189621    0.038352
H     2.463947    0.799751   -0.343674    0.890723   -0.658832    0.004594
H    -1.334775    1.329484   -0.073222   -1.024084   -0.610626    0.180018
H    -2.188921   -2.109906    0.566117   -0.232312    0.210831    0.000857
13
* Frequency(20)  966.5058
C     1.580624    0.269545   -0.187956    0.579841    0.039983   -0.055007
C     1.450096   -1.056693    0.025029   -0.259748    0.149731    0.000307
N     0.145607   -1.506681    0.212922   -0.089352   -0.167857    0.030680
C    -0.935310   -0.703222    0.194398    0.092538   -0.075368    0.008194
N    -0.666535    0.594045   -0.031417   -0.577118   -0.035557    0.060545
C     0.531471    1.209562   -0.235783    0.042876    0.057056   -0.018238
O    -2.177411   -1.125098    0.382761    0.275112    0.130088   -0.048776
O     0.587746    2.410812   -0.425842    0.019776    0.002996   -0.000595
H     2.263555   -1.785738    0.060721   -0.500913   -0.079822    0.063631
H     0.002108   -2.505341    0.367409    0.019603   -0.189621    0.038352
H     2.554204    0.732991   -0.343208    0.890723   -0.658832    0.004594
H    -1.438545    1.267609   -0.054980   -1.024084   -0.610626    0.180018
H    -2.212461   -2.088542    0.566204   -0.232312    0.210831    0.000857
13
* Frequency(20)  966.5058
C     1.646520    0.274089   -0.194207    0.579841    0.039983   -0.055007
C     1.420577   -1.039677    0.025063   -0.259748    0.149731    0.000307
N     0.135453   -1.525757    0.216409   -0.089352   -0.167857    0.030680
C    -0.924794   -0.711788    0.195329    0.092538   -0.075368    0.008194
N    -0.732121    0.590004   -0.024536   -0.577118   -0.035557    0.060545
C     0.536344    1.216046   -0.237856    0.042876    0.057056   -0.018238
O    -2.146146   -1.110315    0.377217    0.275112    0.130088   -0.048776
O     0.589994    2.411153   -0.425909    0.019776    0.002996   -0.000595
H     2.206629   -1.794809    0.067952   -0.500913   -0.079822    0.063631
H     0.004335   -2.526891    0.371768    0.019603   -0.189621    0.038352
H     2.655430    0.658119   -0.342686    0.890723   -0.658832    0.004594
H    -1.554927    1.198215   -0.034522   -1.024084   -0.610626    0.180018
H    -2.238862   -2.064583    0.566301   -0.232312    0.210831    0.000857
