13
* (null), Energy   -1000.0000000
C     1.646520    0.274089   -0.194207   -0.145353   -0.189898    0.041503
C     1.420577   -1.039677    0.025063   -0.132126   -0.077113    0.022930
N     0.135453   -1.525757    0.216409    0.109395    0.612150   -0.098006
C    -0.924794   -0.711788    0.195329    0.054576   -0.129868    0.008185
N    -0.732121    0.590004   -0.024536    0.062061   -0.426114    0.060039
C     0.536344    1.216046   -0.237856   -0.062293    0.075352   -0.006099
O    -2.146146   -1.110315    0.377217    0.096573    0.058503   -0.017124
O     0.589994    2.411153   -0.425909    0.046917    0.119786   -0.022380
H     2.206629   -1.794809    0.067952   -0.691299   -0.637350    0.160736
H     0.004335   -2.526891    0.371768    0.153962    0.652259   -0.123500
H     2.655430    0.658119   -0.342686    0.046513   -0.720462    0.105783
H    -1.554927    1.198215   -0.034522   -0.335115   -1.004684    0.192894
H    -2.238862   -2.064583    0.566301   -0.435754    0.126517    0.026056
13
* Frequency(22) 1040.4287
C     1.630001    0.252508   -0.189491   -0.145353   -0.189898    0.041503
C     1.405561   -1.048441    0.027669   -0.132126   -0.077113    0.022930
N     0.147885   -1.456189    0.205271    0.109395    0.612150   -0.098006
C    -0.918592   -0.726546    0.196259    0.054576   -0.129868    0.008185
N    -0.725068    0.541579   -0.017713    0.062061   -0.426114    0.060039
C     0.529265    1.224609   -0.238549   -0.062293    0.075352   -0.006099
O    -2.135171   -1.103666    0.375271    0.096573    0.058503   -0.017124
O     0.595326    2.424766   -0.428453    0.046917    0.119786   -0.022380
H     2.128067   -1.867241    0.086219   -0.691299   -0.637350    0.160736
H     0.021832   -2.452765    0.357733    0.153962    0.652259   -0.123500
H     2.660716    0.576242   -0.330664    0.046513   -0.720462    0.105783
H    -1.593011    1.084038   -0.012601   -0.335115   -1.004684    0.192894
H    -2.288384   -2.050205    0.569263   -0.435754    0.126517    0.026056
13
* Frequency(22) 1040.4287
C     1.615273    0.233266   -0.185285   -0.145353   -0.189898    0.041503
C     1.392173   -1.056254    0.029993   -0.132126   -0.077113    0.022930
N     0.158970   -1.394160    0.195340    0.109395    0.612150   -0.098006
C    -0.913062   -0.739706    0.197088    0.054576   -0.129868    0.008185
N    -0.718780    0.498401   -0.011630    0.062061   -0.426114    0.060039
C     0.522953    1.232244   -0.239167   -0.062293    0.075352   -0.006099
O    -2.125385   -1.097738    0.373536    0.096573    0.058503   -0.017124
O     0.600080    2.436904   -0.430720    0.046917    0.119786   -0.022380
H     2.058018   -1.931823    0.102506   -0.691299   -0.637350    0.160736
H     0.037433   -2.386672    0.345219    0.153962    0.652259   -0.123500
H     2.665429    0.503238   -0.319945    0.046513   -0.720462    0.105783
H    -1.626968    0.982234    0.006945   -0.335115   -1.004684    0.192894
H    -2.332539   -2.037385    0.571903   -0.435754    0.126517    0.026056
13
* Frequency(22) 1040.4287
C     1.603931    0.218447   -0.182047   -0.145353   -0.189898    0.041503
C     1.381863   -1.062272    0.031782   -0.132126   -0.077113    0.022930
N     0.167507   -1.346392    0.187692    0.109395    0.612150   -0.098006
C    -0.908803   -0.749840    0.197727    0.054576   -0.129868    0.008185
N    -0.713937    0.465149   -0.006945    0.062061   -0.426114    0.060039
C     0.518092    1.238124   -0.239643   -0.062293    0.075352   -0.006099
O    -2.117849   -1.093173    0.372200    0.096573    0.058503   -0.017124
O     0.603741    2.446251   -0.432467    0.046917    0.119786   -0.022380
H     2.004073   -1.981558    0.115049   -0.691299   -0.637350    0.160736
H     0.049447   -2.335773    0.335582    0.153962    0.652259   -0.123500
H     2.669059    0.447017   -0.311691    0.046513   -0.720462    0.105783
H    -1.653118    0.903834    0.021997   -0.335115   -1.004684    0.192894
H    -2.366542   -2.027512    0.573936   -0.435754    0.126517    0.026056
13
* Frequency(22) 1040.4287
C     1.597203    0.209658   -0.180126   -0.145353   -0.189898    0.041503
C     1.375748   -1.065841    0.032843   -0.132126   -0.077113    0.022930
N     0.172569   -1.318060    0.183157    0.109395    0.612150   -0.098006
C    -0.906277   -0.755851    0.198106    0.054576   -0.129868    0.008185
N    -0.711065    0.445428   -0.004166    0.062061   -0.426114    0.060039
C     0.515209    1.241612   -0.239925   -0.062293    0.075352   -0.006099
O    -2.113380   -1.090465    0.371407    0.096573    0.058503   -0.017124
O     0.605912    2.451795   -0.433503    0.046917    0.119786   -0.022380
H     1.972079   -2.011056    0.122488   -0.691299   -0.637350    0.160736
H     0.056573   -2.305585    0.329866    0.153962    0.652259   -0.123500
H     2.671211    0.413673   -0.306795    0.046513   -0.720462    0.105783
H    -1.668628    0.857336    0.030925   -0.335115   -1.004684    0.192894
H    -2.386710   -2.021657    0.575142   -0.435754    0.126517    0.026056
13
* Frequency(22) 1040.4287
C     1.595820    0.207852   -0.179731   -0.145353   -0.189898    0.041503
C     1.374490   -1.066574    0.033062   -0.132126   -0.077113    0.022930
N     0.173610   -1.312236    0.182224    0.109395    0.612150   -0.098006
C    -0.905758   -0.757086    0.198184    0.054576   -0.129868    0.008185
N    -0.710474    0.441374   -0.003595    0.062061   -0.426114    0.060039
C     0.514616    1.242329   -0.239983   -0.062293    0.075352   -0.006099
O    -2.112461   -1.089909    0.371245    0.096573    0.058503   -0.017124
O     0.606359    2.452935   -0.433715    0.046917    0.119786   -0.022380
H     1.965501   -2.017120    0.124017   -0.691299   -0.637350    0.160736
H     0.058038   -2.299380    0.328691    0.153962    0.652259   -0.123500
H     2.671654    0.406818   -0.305788    0.046513   -0.720462    0.105783
H    -1.671817    0.847777    0.032760   -0.335115   -1.004684    0.192894
H    -2.390856   -2.020453    0.575390   -0.435754    0.126517    0.026056
13
* Frequency(22) 1040.4287
C     1.599932    0.213223   -0.180905   -0.145353   -0.189898    0.041503
C     1.378228   -1.064393    0.032413   -0.132126   -0.077113    0.022930
N     0.170516   -1.329550    0.184996    0.109395    0.612150   -0.098006
C    -0.907301   -0.753413    0.197952    0.054576   -0.129868    0.008185
N    -0.712229    0.453426   -0.005293    0.062061   -0.426114    0.060039
C     0.516378    1.240198   -0.239811   -0.062293    0.075352   -0.006099
O    -2.115192   -1.091563    0.371729    0.096573    0.058503   -0.017124
O     0.605032    2.449547   -0.433082    0.046917    0.119786   -0.022380
H     1.985054   -1.999093    0.119471   -0.691299   -0.637350    0.160736
H     0.053683   -2.317828    0.332184    0.153962    0.652259   -0.123500
H     2.670338    0.427196   -0.308780    0.046513   -0.720462    0.105783
H    -1.662338    0.876193    0.027304   -0.335115   -1.004684    0.192894
H    -2.378531   -2.024031    0.574653   -0.435754    0.126517    0.026056
13
* Frequency(22) 1040.4287
C     1.609091    0.225190   -0.183520   -0.145353   -0.189898    0.041503
C     1.386554   -1.059534    0.030968   -0.132126   -0.077113    0.022930
N     0.163622   -1.368126    0.191172    0.109395    0.612150   -0.098006
C    -0.910741   -0.745229    0.197436    0.054576   -0.129868    0.008185
N    -0.716140    0.480278   -0.009076    0.062061   -0.426114    0.060039
C     0.520303    1.235449   -0.239427   -0.062293    0.075352   -0.006099
O    -2.121278   -1.095250    0.372808    0.096573    0.058503   -0.017124
O     0.602075    2.441998   -0.431672    0.046917    0.119786   -0.022380
H     2.028618   -1.958929    0.109342   -0.691299   -0.637350    0.160736
H     0.043981   -2.358932    0.339966    0.153962    0.652259   -0.123500
H     2.667407    0.472597   -0.315447    0.046513   -0.720462    0.105783
H    -1.641220    0.939505    0.015148   -0.335115   -1.004684    0.192894
H    -2.351071   -2.032004    0.573011   -0.435754    0.126517    0.026056
13
* Frequency(22) 1040.4287
C     1.622307    0.242455   -0.187294   -0.145353   -0.189898    0.041503
C     1.398567   -1.052523    0.028883   -0.132126   -0.077113    0.022930
N     0.153676   -1.423784    0.200083    0.109395    0.612150   -0.098006
C    -0.915703   -0.733421    0.196692    0.054576   -0.129868    0.008185
N    -0.721783    0.519021   -0.014535    0.062061   -0.426114    0.060039
C     0.525967    1.228598   -0.238872   -0.062293    0.075352   -0.006099
O    -2.130059   -1.100569    0.374365    0.096573    0.058503   -0.017124
O     0.597809    2.431107   -0.429637    0.046917    0.119786   -0.022380
H     2.091472   -1.900980    0.094728   -0.691299   -0.637350    0.160736
H     0.029983   -2.418236    0.351195    0.153962    0.652259   -0.123500
H     2.663178    0.538103   -0.325064    0.046513   -0.720462    0.105783
H    -1.610751    1.030853   -0.002390   -0.335115   -1.004684    0.192894
H    -2.311451   -2.043507    0.570642   -0.435754    0.126517    0.026056
13
* Frequency(22) 1040.4287
C     1.638147    0.263149   -0.191816   -0.145353   -0.189898    0.041503
C     1.412965   -1.044119    0.026384   -0.132126   -0.077113    0.022930
N     0.141755   -1.490492    0.210763    0.109395    0.612150   -0.098006
C    -0.921650   -0.719269    0.195800    0.054576   -0.129868    0.008185
N    -0.728546    0.565457   -0.021078    0.062061   -0.426114    0.060039
C     0.532755    1.220387   -0.238207   -0.062293    0.075352   -0.006099
O    -2.140583   -1.106944    0.376231    0.096573    0.058503   -0.017124
O     0.592697    2.418053   -0.427199    0.046917    0.119786   -0.022380
H     2.166805   -1.831526    0.077212   -0.691299   -0.637350    0.160736
H     0.013205   -2.489315    0.364653    0.153962    0.652259   -0.123500
H     2.658109    0.616614   -0.336592    0.046513   -0.720462    0.105783
H    -1.574232    1.140337   -0.023410   -0.335115   -1.004684    0.192894
H    -2.263965   -2.057294    0.567803   -0.435754    0.126517    0.026056
13
* Frequency(22) 1040.4287
C     1.654894    0.285028   -0.196598   -0.145353   -0.189898    0.041503
C     1.428188   -1.035235    0.023743   -0.132126   -0.077113    0.022930
N     0.129151   -1.561021    0.222055    0.109395    0.612150   -0.098006
C    -0.927938   -0.704306    0.194857    0.054576   -0.129868    0.008185
N    -0.735696    0.614552   -0.027995    0.062061   -0.426114    0.060039
C     0.539933    1.211705   -0.237505   -0.062293    0.075352   -0.006099
O    -2.151710   -1.113685    0.378204    0.096573    0.058503   -0.017124
O     0.587291    2.404252   -0.424620    0.046917    0.119786   -0.022380
H     2.246454   -1.758092    0.058692   -0.691299   -0.637350    0.160736
H    -0.004534   -2.564466    0.378883    0.153962    0.652259   -0.123500
H     2.652750    0.699623   -0.348780    0.046513   -0.720462    0.105783
H    -1.535622    1.256093   -0.045635   -0.335115   -1.004684    0.192894
H    -2.213759   -2.071871    0.564800   -0.435754    0.126517    0.026056
13
* Frequency(22) 1040.4287
C     1.670733    0.305722   -0.201121   -0.145353   -0.189898    0.041503
C     1.442587   -1.026832    0.021244   -0.132126   -0.077113    0.022930
N     0.117230   -1.627730    0.232735    0.109395    0.612150   -0.098006
C    -0.933885   -0.690154    0.193965    0.054576   -0.129868    0.008185
N    -0.742459    0.660987   -0.034538    0.062061   -0.426114    0.060039
C     0.546721    1.203493   -0.236840   -0.062293    0.075352   -0.006099
O    -2.162233   -1.120060    0.380070    0.096573    0.058503   -0.017124
O     0.582178    2.391199   -0.422181    0.046917    0.119786   -0.022380
H     2.321787   -1.688638    0.041176   -0.691299   -0.637350    0.160736
H    -0.021312   -2.635545    0.392341    0.153962    0.652259   -0.123500
H     2.647682    0.778134   -0.360307    0.046513   -0.720462    0.105783
H    -1.499103    1.365577   -0.066655   -0.335115   -1.004684    0.192894
H    -2.166274   -2.085658    0.561961   -0.435754    0.126517    0.026056
13
* Frequency(22) 1040.4287
C     1.683949    0.322988   -0.204894   -0.145353   -0.189898    0.041503
C     1.454600   -1.019820    0.019159   -0.132126   -0.077113    0.022930
N     0.107283   -1.683387    0.241646    0.109395    0.612150   -0.098006
C    -0.938848   -0.678346    0.193221    0.054576   -0.129868    0.008185
N    -0.748102    0.699730   -0.039997    0.062061   -0.426114    0.060039
C     0.552385    1.196642   -0.236285   -0.062293    0.075352   -0.006099
O    -2.171014   -1.125379    0.381627    0.096573    0.058503   -0.017124
O     0.577913    2.380307   -0.420146    0.046917    0.119786   -0.022380
H     2.384641   -1.630689    0.026562   -0.691299   -0.637350    0.160736
H    -0.035310   -2.694850    0.403570    0.153962    0.652259   -0.123500
H     2.643453    0.843640   -0.369925    0.046513   -0.720462    0.105783
H    -1.468634    1.456925   -0.084193   -0.335115   -1.004684    0.192894
H    -2.126654   -2.097161    0.559592   -0.435754    0.126517    0.026056
13
* Frequency(22) 1040.4287
C     1.693109    0.334955   -0.207510   -0.145353   -0.189898    0.041503
C     1.462926   -1.014961    0.017714   -0.132126   -0.077113    0.022930
N     0.100390   -1.721963    0.247822    0.109395    0.612150   -0.098006
C    -0.942287   -0.670162    0.192705    0.054576   -0.129868    0.008185
N    -0.752013    0.726583   -0.043780    0.062061   -0.426114    0.060039
C     0.556310    1.191894   -0.235901   -0.062293    0.075352   -0.006099
O    -2.177100   -1.129066    0.382706    0.096573    0.058503   -0.017124
O     0.574956    2.372759   -0.418736    0.046917    0.119786   -0.022380
H     2.428205   -1.590525    0.016433   -0.691299   -0.637350    0.160736
H    -0.045013   -2.735953    0.411352    0.153962    0.652259   -0.123500
H     2.640522    0.889041   -0.376592    0.046513   -0.720462    0.105783
H    -1.447516    1.520237   -0.096349   -0.335115   -1.004684    0.192894
H    -2.099194   -2.105134    0.557950   -0.435754    0.126517    0.026056
13
* Frequency(22) 1040.4287
C     1.697220    0.340326   -0.208684   -0.145353   -0.189898    0.041503
C     1.466663   -1.012780    0.017065   -0.132126   -0.077113    0.022930
N     0.097296   -1.739277    0.250594    0.109395    0.612150   -0.098006
C    -0.943830   -0.666489    0.192474    0.054576   -0.129868    0.008185
N    -0.753768    0.738635   -0.045478    0.062061   -0.426114    0.060039
C     0.558072    1.189763   -0.235729   -0.062293    0.075352   -0.006099
O    -2.179831   -1.130721    0.383190    0.096573    0.058503   -0.017124
O     0.573629    2.369371   -0.418103    0.046917    0.119786   -0.022380
H     2.447757   -1.572498    0.011886   -0.691299   -0.637350    0.160736
H    -0.049367   -2.754402    0.414845    0.153962    0.652259   -0.123500
H     2.639206    0.909419   -0.379584    0.046513   -0.720462    0.105783
H    -1.438037    1.548653   -0.101805   -0.335115   -1.004684    0.192894
H    -2.086869   -2.108712    0.557213   -0.435754    0.126517    0.026056
13
* Frequency(22) 1040.4287
C     1.695837    0.338519   -0.208289   -0.145353   -0.189898    0.041503
C     1.465406   -1.013514    0.017284   -0.132126   -0.077113    0.022930
N     0.098336   -1.733453    0.249661    0.109395    0.612150   -0.098006
C    -0.943311   -0.667724    0.192552    0.054576   -0.129868    0.008185
N    -0.753178    0.734580   -0.044907    0.062061   -0.426114    0.060039
C     0.557479    1.190479   -0.235787   -0.062293    0.075352   -0.006099
O    -2.178913   -1.130164    0.383027    0.096573    0.058503   -0.017124
O     0.574075    2.370510   -0.418316    0.046917    0.119786   -0.022380
H     2.441180   -1.578562    0.013416   -0.691299   -0.637350    0.160736
H    -0.047903   -2.748196    0.413670    0.153962    0.652259   -0.123500
H     2.639649    0.902564   -0.378577    0.046513   -0.720462    0.105783
H    -1.441226    1.539094   -0.099969   -0.335115   -1.004684    0.192894
H    -2.091015   -2.107509    0.557461   -0.435754    0.126517    0.026056
13
* Frequency(22) 1040.4287
C     1.689110    0.329730   -0.206368   -0.145353   -0.189898    0.041503
C     1.459291   -1.017083    0.018345   -0.132126   -0.077113    0.022930
N     0.103399   -1.705122    0.245125    0.109395    0.612150   -0.098006
C    -0.940785   -0.673735    0.192930    0.054576   -0.129868    0.008185
N    -0.750305    0.714859   -0.042128    0.062061   -0.426114    0.060039
C     0.554596    1.193967   -0.236069   -0.062293    0.075352   -0.006099
O    -2.174443   -1.127456    0.382235    0.096573    0.058503   -0.017124
O     0.576247    2.376054   -0.419352    0.046917    0.119786   -0.022380
H     2.409185   -1.608060    0.020855   -0.691299   -0.637350    0.160736
H    -0.040777   -2.718008    0.407954    0.153962    0.652259   -0.123500
H     2.641801    0.869220   -0.373681    0.046513   -0.720462    0.105783
H    -1.456735    1.492596   -0.091042   -0.335115   -1.004684    0.192894
H    -2.111183   -2.101653    0.558667   -0.435754    0.126517    0.026056
13
* Frequency(22) 1040.4287
C     1.677767    0.314912   -0.203129   -0.145353   -0.189898    0.041503
C     1.448980   -1.023100    0.020134   -0.132126   -0.077113    0.022930
N     0.111936   -1.657353    0.237478    0.109395    0.612150   -0.098006
C    -0.936526   -0.683869    0.193569    0.054576   -0.129868    0.008185
N    -0.745463    0.681608   -0.037443    0.062061   -0.426114    0.060039
C     0.549735    1.199847   -0.236545   -0.062293    0.075352   -0.006099
O    -2.166907   -1.122891    0.380899    0.096573    0.058503   -0.017124
O     0.579908    2.385402   -0.421098    0.046917    0.119786   -0.022380
H     2.355241   -1.657795    0.033398   -0.691299   -0.637350    0.160736
H    -0.028763   -2.667110    0.398317    0.153962    0.652259   -0.123500
H     2.645431    0.812999   -0.365427    0.046513   -0.720462    0.105783
H    -1.482886    1.414196   -0.075990   -0.335115   -1.004684    0.192894
H    -2.145186   -2.091781    0.560700   -0.435754    0.126517    0.026056
13
* Frequency(22) 1040.4287
C     1.663039    0.295670   -0.198924   -0.145353   -0.189898    0.041503
C     1.435592   -1.030914    0.022458   -0.132126   -0.077113    0.022930
N     0.123021   -1.595324    0.227547    0.109395    0.612150   -0.098006
C    -0.930996   -0.697029    0.194399    0.054576   -0.129868    0.008185
N    -0.739174    0.638430   -0.031359    0.062061   -0.426114    0.060039
C     0.543423    1.207482   -0.237163   -0.062293    0.075352   -0.006099
O    -2.157121   -1.116963    0.379163    0.096573    0.058503   -0.017124
O     0.584662    2.397540   -0.423366    0.046917    0.119786   -0.022380
H     2.285192   -1.722377    0.049685   -0.691299   -0.637350    0.160736
H    -0.013162   -2.601017    0.385803    0.153962    0.652259   -0.123500
H     2.650144    0.739995   -0.354708    0.046513   -0.720462    0.105783
H    -1.516843    1.312392   -0.056444   -0.335115   -1.004684    0.192894
H    -2.189341   -2.078961    0.563340   -0.435754    0.126517    0.026056
13
* Frequency(22) 1040.4287
C     1.646520    0.274089   -0.194207   -0.145353   -0.189898    0.041503
C     1.420577   -1.039677    0.025063   -0.132126   -0.077113    0.022930
N     0.135453   -1.525757    0.216409    0.109395    0.612150   -0.098006
C    -0.924794   -0.711788    0.195329    0.054576   -0.129868    0.008185
N    -0.732121    0.590004   -0.024536    0.062061   -0.426114    0.060039
C     0.536344    1.216046   -0.237856   -0.062293    0.075352   -0.006099
O    -2.146146   -1.110315    0.377217    0.096573    0.058503   -0.017124
O     0.589994    2.411153   -0.425909    0.046917    0.119786   -0.022380
H     2.206629   -1.794809    0.067952   -0.691299   -0.637350    0.160736
H     0.004335   -2.526891    0.371768    0.153962    0.652259   -0.123500
H     2.655430    0.658119   -0.342686    0.046513   -0.720462    0.105783
H    -1.554927    1.198215   -0.034522   -0.335115   -1.004684    0.192894
H    -2.238862   -2.064583    0.566301   -0.435754    0.126517    0.026056
