13
* (null), Energy   -1000.0000000
C     1.393781    0.533776   -0.062691   -0.136849    0.019018    0.009869
C     1.168148   -0.779758    0.160441    0.063986   -0.055359    0.002614
N    -0.116197   -1.262094    0.357179   -0.094422    0.048810    0.002271
C    -1.173993   -0.446979    0.334824   -0.036751    0.114048   -0.014012
N    -0.982141    0.854104    0.116669   -0.134142   -0.159056    0.037334
C     0.285100    1.476626   -0.101181    0.436392    0.015654   -0.044413
O    -2.392774   -0.849779    0.515859    0.091525   -0.007809   -0.007744
O     0.338858    2.672655   -0.290012   -0.047206   -0.033209    0.009589
H     1.953348   -1.535224    0.201378    0.865979    0.761391   -0.203305
H    -0.254993   -2.258813    0.525028   -0.989114    0.191902    0.061542
H     2.401547    0.916834   -0.219517   -0.387268    0.622959   -0.056084
H    -1.805505    1.460126    0.102516   -0.433912   -0.573565    0.130134
H    -2.476740   -1.809302    0.672136   -0.476803    0.067858    0.035524
13
* Frequency(26) 1224.3452
C     1.378229    0.535937   -0.061569   -0.136849    0.019018    0.009869
C     1.175420   -0.786050    0.160738    0.063986   -0.055359    0.002614
N    -0.126927   -1.256547    0.357438   -0.094422    0.048810    0.002271
C    -1.178169   -0.434018    0.333232   -0.036751    0.114048   -0.014012
N    -0.997385    0.836028    0.120912   -0.134142   -0.159056    0.037334
C     0.334694    1.478405   -0.106229    0.436392    0.015654   -0.044413
O    -2.382373   -0.850667    0.514979    0.091525   -0.007809   -0.007744
O     0.333493    2.668880   -0.288922   -0.047206   -0.033209    0.009589
H     2.051762   -1.448696    0.178273    0.865979    0.761391   -0.203305
H    -0.367401   -2.237005    0.532022   -0.989114    0.191902    0.061542
H     2.357536    0.987630   -0.225890   -0.387268    0.622959   -0.056084
H    -1.854817    1.394944    0.117305   -0.433912   -0.573565    0.130134
H    -2.530926   -1.801590    0.676173   -0.476803    0.067858    0.035524
13
* Frequency(26) 1224.3452
C     1.364362    0.537864   -0.060569   -0.136849    0.019018    0.009869
C     1.181904   -0.791659    0.161003    0.063986   -0.055359    0.002614
N    -0.136495   -1.251601    0.357668   -0.094422    0.048810    0.002271
C    -1.181893   -0.422462    0.331812   -0.036751    0.114048   -0.014012
N    -1.010978    0.819911    0.124695   -0.134142   -0.159056    0.037334
C     0.378913    1.479991   -0.110729    0.436392    0.015654   -0.044413
O    -2.373099   -0.851458    0.514194    0.091525   -0.007809   -0.007744
O     0.328710    2.665515   -0.287951   -0.047206   -0.033209    0.009589
H     2.139512   -1.371544    0.157672    0.865979    0.761391   -0.203305
H    -0.467627   -2.217559    0.538258   -0.989114    0.191902    0.061542
H     2.318294    1.050754   -0.231573   -0.387268    0.622959   -0.056084
H    -1.898785    1.336824    0.130491   -0.433912   -0.573565    0.130134
H    -2.579240   -1.794714    0.679773   -0.476803    0.067858    0.035524
13
* Frequency(26) 1224.3452
C     1.353683    0.539348   -0.059799   -0.136849    0.019018    0.009869
C     1.186897   -0.795979    0.161207    0.063986   -0.055359    0.002614
N    -0.143863   -1.247792    0.357845   -0.094422    0.048810    0.002271
C    -1.184761   -0.413562    0.330719   -0.036751    0.114048   -0.014012
N    -1.021446    0.807499    0.127608   -0.134142   -0.159056    0.037334
C     0.412966    1.481212   -0.114195    0.436392    0.015654   -0.044413
O    -2.365957   -0.852068    0.513590    0.091525   -0.007809   -0.007744
O     0.325026    2.662924   -0.287202   -0.047206   -0.033209    0.009589
H     2.207087   -1.312130    0.141808    0.865979    0.761391   -0.203305
H    -0.544812   -2.202585    0.543061   -0.989114    0.191902    0.061542
H     2.288074    1.099366   -0.235950   -0.387268    0.622959   -0.056084
H    -1.932645    1.292067    0.140646   -0.433912   -0.573565    0.130134
H    -2.616447   -1.789419    0.682545   -0.476803    0.067858    0.035524
13
* Frequency(26) 1224.3452
C     1.347350    0.540228   -0.059342   -0.136849    0.019018    0.009869
C     1.189858   -0.798541    0.161328    0.063986   -0.055359    0.002614
N    -0.148233   -1.245533    0.357950   -0.094422    0.048810    0.002271
C    -1.186462   -0.408284    0.330070   -0.036751    0.114048   -0.014012
N    -1.027654    0.800137    0.129336   -0.134142   -0.159056    0.037334
C     0.433163    1.481937   -0.116250    0.436392    0.015654   -0.044413
O    -2.361721   -0.852429    0.513231    0.091525   -0.007809   -0.007744
O     0.322842    2.661387   -0.286759   -0.047206   -0.033209    0.009589
H     2.247166   -1.276891    0.132398    0.865979    0.761391   -0.203305
H    -0.590590   -2.193703    0.545909   -0.989114    0.191902    0.061542
H     2.270150    1.128197   -0.238545   -0.387268    0.622959   -0.056084
H    -1.952727    1.265521    0.146669   -0.433912   -0.573565    0.130134
H    -2.638514   -1.786278    0.684189   -0.476803    0.067858    0.035524
13
* Frequency(26) 1224.3452
C     1.346048    0.540409   -0.059248   -0.136849    0.019018    0.009869
C     1.190467   -0.799068    0.161353    0.063986   -0.055359    0.002614
N    -0.149132   -1.245069    0.357971   -0.094422    0.048810    0.002271
C    -1.186812   -0.407198    0.329937   -0.036751    0.114048   -0.014012
N    -1.028930    0.798624    0.129691   -0.134142   -0.159056    0.037334
C     0.437316    1.482086   -0.116673    0.436392    0.015654   -0.044413
O    -2.360850   -0.852503    0.513158    0.091525   -0.007809   -0.007744
O     0.322393    2.661071   -0.286667   -0.047206   -0.033209    0.009589
H     2.255406   -1.269647    0.130464    0.865979    0.761391   -0.203305
H    -0.600001   -2.191877    0.546494   -0.989114    0.191902    0.061542
H     2.266466    1.134124   -0.239079   -0.387268    0.622959   -0.056084
H    -1.956855    1.260064    0.147907   -0.433912   -0.573565    0.130134
H    -2.643051   -1.785632    0.684527   -0.476803    0.067858    0.035524
13
* Frequency(26) 1224.3452
C     1.349918    0.539871   -0.059527   -0.136849    0.019018    0.009869
C     1.188657   -0.797502    0.161279    0.063986   -0.055359    0.002614
N    -0.146461   -1.246449    0.357907   -0.094422    0.048810    0.002271
C    -1.185772   -0.410424    0.330333   -0.036751    0.114048   -0.014012
N    -1.025136    0.803123    0.128635   -0.134142   -0.159056    0.037334
C     0.424973    1.481643   -0.115417    0.436392    0.015654   -0.044413
O    -2.363439   -0.852282    0.513377    0.091525   -0.007809   -0.007744
O     0.323728    2.662010   -0.286939   -0.047206   -0.033209    0.009589
H     2.230913   -1.291182    0.136214    0.865979    0.761391   -0.203305
H    -0.572025   -2.197305    0.544754   -0.989114    0.191902    0.061542
H     2.277419    1.116505   -0.237493   -0.387268    0.622959   -0.056084
H    -1.944583    1.276287    0.144226   -0.433912   -0.573565    0.130134
H    -2.629565   -1.787552    0.683522   -0.476803    0.067858    0.035524
13
* Frequency(26) 1224.3452
C     1.358542    0.538673   -0.060149   -0.136849    0.019018    0.009869
C     1.184625   -0.794014    0.161114    0.063986   -0.055359    0.002614
N    -0.140511   -1.249525    0.357764   -0.094422    0.048810    0.002271
C    -1.183456   -0.417611    0.331216   -0.036751    0.114048   -0.014012
N    -1.016683    0.813146    0.126282   -0.134142   -0.159056    0.037334
C     0.397472    1.480657   -0.112618    0.436392    0.015654   -0.044413
O    -2.369206   -0.851790    0.513865    0.091525   -0.007809   -0.007744
O     0.326703    2.664103   -0.287543   -0.047206   -0.033209    0.009589
H     2.176341   -1.339163    0.149026    0.865979    0.761391   -0.203305
H    -0.509693   -2.209398    0.540876   -0.989114    0.191902    0.061542
H     2.301824    1.077248   -0.233958   -0.387268    0.622959   -0.056084
H    -1.917239    1.312431    0.136026   -0.433912   -0.573565    0.130134
H    -2.599518   -1.791828    0.681284   -0.476803    0.067858    0.035524
13
* Frequency(26) 1224.3452
C     1.370985    0.536944   -0.061046   -0.136849    0.019018    0.009869
C     1.178807   -0.788980    0.160877    0.063986   -0.055359    0.002614
N    -0.131926   -1.253963    0.357558   -0.094422    0.048810    0.002271
C    -1.180115   -0.427981    0.332490   -0.036751    0.114048   -0.014012
N    -1.004487    0.827608    0.122888   -0.134142   -0.159056    0.037334
C     0.357795    1.479233   -0.108580    0.436392    0.015654   -0.044413
O    -2.377528   -0.851080    0.514569    0.091525   -0.007809   -0.007744
O     0.330995    2.667122   -0.288415   -0.047206   -0.033209    0.009589
H     2.097604   -1.408390    0.167511    0.865979    0.761391   -0.203305
H    -0.419761   -2.226846    0.535280   -0.989114    0.191902    0.061542
H     2.337035    1.020607   -0.228859   -0.387268    0.622959   -0.056084
H    -1.877787    1.364581    0.124194   -0.433912   -0.573565    0.130134
H    -2.556166   -1.797998    0.678054   -0.476803    0.067858    0.035524
13
* Frequency(26) 1224.3452
C     1.385898    0.534871   -0.062122   -0.136849    0.019018    0.009869
C     1.171834   -0.782948    0.160592    0.063986   -0.055359    0.002614
N    -0.121636   -1.259282    0.357310   -0.094422    0.048810    0.002271
C    -1.176110   -0.440409    0.334017   -0.036751    0.114048   -0.014012
N    -0.989869    0.844941    0.118820   -0.134142   -0.159056    0.037334
C     0.310240    1.477528   -0.103740    0.436392    0.015654   -0.044413
O    -2.387502   -0.850229    0.515413    0.091525   -0.007809   -0.007744
O     0.336139    2.670741   -0.289460   -0.047206   -0.033209    0.009589
H     2.003236   -1.491362    0.189666    0.865979    0.761391   -0.203305
H    -0.311974   -2.247758    0.528573   -0.989114    0.191902    0.061542
H     2.379237    0.952721   -0.222747   -0.387268    0.622959   -0.056084
H    -1.830502    1.427084    0.110013   -0.433912   -0.573565    0.130134
H    -2.504208   -1.805392    0.674183   -0.476803    0.067858    0.035524
13
* Frequency(26) 1224.3452
C     1.401665    0.532680   -0.063259   -0.136849    0.019018    0.009869
C     1.164462   -0.776569    0.160290    0.063986   -0.055359    0.002614
N    -0.110757   -1.264906    0.357049   -0.094422    0.048810    0.002271
C    -1.171876   -0.453549    0.335631   -0.036751    0.114048   -0.014012
N    -0.974413    0.863267    0.114518   -0.134142   -0.159056    0.037334
C     0.259960    1.475724   -0.098623    0.436392    0.015654   -0.044413
O    -2.398047   -0.849329    0.516305    0.091525   -0.007809   -0.007744
O     0.341578    2.674568   -0.290564   -0.047206   -0.033209    0.009589
H     1.903461   -1.579086    0.213090    0.865979    0.761391   -0.203305
H    -0.198012   -2.269868    0.521483   -0.989114    0.191902    0.061542
H     2.423856    0.880946   -0.216286   -0.387268    0.622959   -0.056084
H    -1.780508    1.493168    0.095019   -0.433912   -0.573565    0.130134
H    -2.449272   -1.813211    0.670090   -0.476803    0.067858    0.035524
13
* Frequency(26) 1224.3452
C     1.416578    0.530608   -0.064335   -0.136849    0.019018    0.009869
C     1.157489   -0.770537    0.160006    0.063986   -0.055359    0.002614
N    -0.100468   -1.270225    0.356801   -0.094422    0.048810    0.002271
C    -1.167871   -0.465977    0.337158   -0.036751    0.114048   -0.014012
N    -0.959795    0.880600    0.110450   -0.134142   -0.159056    0.037334
C     0.212405    1.474018   -0.093783    0.436392    0.015654   -0.044413
O    -2.408021   -0.848478    0.517149    0.091525   -0.007809   -0.007744
O     0.346722    2.678187   -0.291609   -0.047206   -0.033209    0.009589
H     1.809092   -1.662058    0.235245    0.865979    0.761391   -0.203305
H    -0.090225   -2.290781    0.514776   -0.989114    0.191902    0.061542
H     2.466058    0.813060   -0.210174   -0.387268    0.622959   -0.056084
H    -1.733223    1.555672    0.080838   -0.433912   -0.573565    0.130134
H    -2.397313   -1.820605    0.666218   -0.476803    0.067858    0.035524
13
* Frequency(26) 1224.3452
C     1.429021    0.528879   -0.065232   -0.136849    0.019018    0.009869
C     1.151672   -0.765503    0.159768    0.063986   -0.055359    0.002614
N    -0.091883   -1.274663    0.356595   -0.094422    0.048810    0.002271
C    -1.164529   -0.476347    0.338432   -0.036751    0.114048   -0.014012
N    -0.947599    0.895061    0.107055   -0.134142   -0.159056    0.037334
C     0.172728    1.472595   -0.089745    0.436392    0.015654   -0.044413
O    -2.416342   -0.847768    0.517853    0.091525   -0.007809   -0.007744
O     0.351014    2.681206   -0.292481   -0.047206   -0.033209    0.009589
H     1.730356   -1.731285    0.253729    0.865979    0.761391   -0.203305
H    -0.000293   -2.308229    0.509181   -0.989114    0.191902    0.061542
H     2.501269    0.756419   -0.205075   -0.387268    0.622959   -0.056084
H    -1.693771    1.607821    0.069006   -0.433912   -0.573565    0.130134
H    -2.353962   -1.826775    0.662988   -0.476803    0.067858    0.035524
13
* Frequency(26) 1224.3452
C     1.437644    0.527680   -0.065854   -0.136849    0.019018    0.009869
C     1.147639   -0.762015    0.159603    0.063986   -0.055359    0.002614
N    -0.085932   -1.277739    0.356452   -0.094422    0.048810    0.002271
C    -1.162214   -0.483534    0.339315   -0.036751    0.114048   -0.014012
N    -0.939145    0.905084    0.104703   -0.134142   -0.159056    0.037334
C     0.145227    1.471608   -0.086946    0.436392    0.015654   -0.044413
O    -2.422110   -0.847276    0.518341    0.091525   -0.007809   -0.007744
O     0.353989    2.683299   -0.293085   -0.047206   -0.033209    0.009589
H     1.675784   -1.779265    0.266541    0.865979    0.761391   -0.203305
H     0.062038   -2.320322    0.505302   -0.989114    0.191902    0.061542
H     2.525674    0.717162   -0.201540   -0.387268    0.622959   -0.056084
H    -1.666427    1.643966    0.060805   -0.433912   -0.573565    0.130134
H    -2.323915   -1.831051    0.660750   -0.476803    0.067858    0.035524
13
* Frequency(26) 1224.3452
C     1.441515    0.527142   -0.066133   -0.136849    0.019018    0.009869
C     1.145830   -0.760449    0.159529    0.063986   -0.055359    0.002614
N    -0.083262   -1.279119    0.356387   -0.094422    0.048810    0.002271
C    -1.161174   -0.486760    0.339711   -0.036751    0.114048   -0.014012
N    -0.935351    0.909583    0.103647   -0.134142   -0.159056    0.037334
C     0.132885    1.471166   -0.085690    0.436392    0.015654   -0.044413
O    -2.424699   -0.847055    0.518560    0.091525   -0.007809   -0.007744
O     0.355324    2.684238   -0.293357   -0.047206   -0.033209    0.009589
H     1.651291   -1.800801    0.272291    0.865979    0.761391   -0.203305
H     0.090014   -2.325750    0.503562   -0.989114    0.191902    0.061542
H     2.536627    0.699543   -0.199954   -0.387268    0.622959   -0.056084
H    -1.654154    1.660189    0.057125   -0.433912   -0.573565    0.130134
H    -2.310429   -1.832971    0.659745   -0.476803    0.067858    0.035524
13
* Frequency(26) 1224.3452
C     1.440213    0.527323   -0.066039   -0.136849    0.019018    0.009869
C     1.146438   -0.760976    0.159554    0.063986   -0.055359    0.002614
N    -0.084160   -1.278655    0.356409   -0.094422    0.048810    0.002271
C    -1.161524   -0.485674    0.339578   -0.036751    0.114048   -0.014012
N    -0.936628    0.908070    0.104002   -0.134142   -0.159056    0.037334
C     0.137037    1.471314   -0.086112    0.436392    0.015654   -0.044413
O    -2.423828   -0.847130    0.518487    0.091525   -0.007809   -0.007744
O     0.354875    2.683922   -0.293265   -0.047206   -0.033209    0.009589
H     1.659530   -1.793556    0.270357    0.865979    0.761391   -0.203305
H     0.080603   -2.323924    0.504147   -0.989114    0.191902    0.061542
H     2.532943    0.705470   -0.200488   -0.387268    0.622959   -0.056084
H    -1.658283    1.654731    0.058363   -0.433912   -0.573565    0.130134
H    -2.314965   -1.832325    0.660083   -0.476803    0.067858    0.035524
13
* Frequency(26) 1224.3452
C     1.433879    0.528203   -0.065582   -0.136849    0.019018    0.009869
C     1.149400   -0.763538    0.159675    0.063986   -0.055359    0.002614
N    -0.088530   -1.276396    0.356514   -0.094422    0.048810    0.002271
C    -1.163225   -0.480396    0.338930   -0.036751    0.114048   -0.014012
N    -0.942836    0.900708    0.105730   -0.134142   -0.159056    0.037334
C     0.157234    1.472039   -0.088168    0.436392    0.015654   -0.044413
O    -2.419592   -0.847491    0.518128    0.091525   -0.007809   -0.007744
O     0.352690    2.682385   -0.292822   -0.047206   -0.033209    0.009589
H     1.699609   -1.758318    0.260948    0.865979    0.761391   -0.203305
H     0.034825   -2.315042    0.506996   -0.989114    0.191902    0.061542
H     2.515019    0.734301   -0.203083   -0.387268    0.622959   -0.056084
H    -1.678365    1.628186    0.064386   -0.433912   -0.573565    0.130134
H    -2.337033   -1.829184    0.661727   -0.476803    0.067858    0.035524
13
* Frequency(26) 1224.3452
C     1.423201    0.529687   -0.064812   -0.136849    0.019018    0.009869
C     1.154393   -0.767858    0.159879    0.063986   -0.055359    0.002614
N    -0.095898   -1.272587    0.356691   -0.094422    0.048810    0.002271
C    -1.166092   -0.471496    0.337836   -0.036751    0.114048   -0.014012
N    -0.953304    0.888297    0.108643   -0.134142   -0.159056    0.037334
C     0.191287    1.473260   -0.091634    0.436392    0.015654   -0.044413
O    -2.412450   -0.848101    0.517524    0.091525   -0.007809   -0.007744
O     0.349006    2.679794   -0.292073   -0.047206   -0.033209    0.009589
H     1.767185   -1.698903    0.245083    0.865979    0.761391   -0.203305
H    -0.042359   -2.300067    0.511798   -0.989114    0.191902    0.061542
H     2.484799    0.782913   -0.207460   -0.387268    0.622959   -0.056084
H    -1.712225    1.583428    0.074540   -0.433912   -0.573565    0.130134
H    -2.374239   -1.823889    0.664499   -0.476803    0.067858    0.035524
13
* Frequency(26) 1224.3452
C     1.409334    0.531614   -0.063812   -0.136849    0.019018    0.009869
C     1.160877   -0.773467    0.160144    0.063986   -0.055359    0.002614
N    -0.105466   -1.267641    0.356921   -0.094422    0.048810    0.002271
C    -1.169816   -0.459940    0.336417   -0.036751    0.114048   -0.014012
N    -0.966896    0.872180    0.112426   -0.134142   -0.159056    0.037334
C     0.235506    1.474847   -0.096134    0.436392    0.015654   -0.044413
O    -2.403176   -0.848892    0.516739    0.091525   -0.007809   -0.007744
O     0.344223    2.676429   -0.291102   -0.047206   -0.033209    0.009589
H     1.854934   -1.621752    0.224482    0.865979    0.761391   -0.203305
H    -0.142586   -2.280622    0.518034   -0.989114    0.191902    0.061542
H     2.445557    0.846037   -0.213143   -0.387268    0.622959   -0.056084
H    -1.756193    1.525309    0.087727   -0.433912   -0.573565    0.130134
H    -2.422554   -1.817013    0.668099   -0.476803    0.067858    0.035524
13
* Frequency(26) 1224.3452
C     1.393781    0.533776   -0.062691   -0.136849    0.019018    0.009869
C     1.168148   -0.779758    0.160441    0.063986   -0.055359    0.002614
N    -0.116197   -1.262094    0.357179   -0.094422    0.048810    0.002271
C    -1.173993   -0.446979    0.334824   -0.036751    0.114048   -0.014012
N    -0.982141    0.854104    0.116669   -0.134142   -0.159056    0.037334
C     0.285100    1.476626   -0.101181    0.436392    0.015654   -0.044413
O    -2.392774   -0.849779    0.515859    0.091525   -0.007809   -0.007744
O     0.338858    2.672655   -0.290012   -0.047206   -0.033209    0.009589
H     1.953348   -1.535224    0.201378    0.865979    0.761391   -0.203305
H    -0.254993   -2.258813    0.525028   -0.989114    0.191902    0.061542
H     2.401547    0.916834   -0.219517   -0.387268    0.622959   -0.056084
H    -1.805505    1.460126    0.102516   -0.433912   -0.573565    0.130134
H    -2.476740   -1.809302    0.672136   -0.476803    0.067858    0.035524
