13
* (null), Energy   -1000.0000000
C     1.646520    0.274089   -0.194207    0.001357    0.002391   -0.000453
C     1.420577   -1.039677    0.025063    0.002104    0.000415   -0.000098
N     0.135453   -1.525757    0.216409   -0.017492   -0.145829    0.022791
C    -0.924794   -0.711788    0.195329   -0.000666    0.002152   -0.000259
N    -0.732121    0.590004   -0.024536   -0.024017    0.020628   -0.000796
C     0.536344    1.216046   -0.237856   -0.000261   -0.002215    0.000345
O    -2.146146   -1.110315    0.377217   -0.000014    0.006679   -0.001306
O     0.589994    2.411153   -0.425909   -0.000067    0.001294   -0.000250
H     2.206629   -1.794809    0.067952   -0.008786    0.007980   -0.000214
H     0.004335   -2.526891    0.371768    0.261261    1.909733   -0.303572
H     2.655430    0.658119   -0.342686   -0.002914   -0.000300    0.000362
H    -1.554927    1.198215   -0.034522    0.320606   -0.233825    0.003493
H    -2.238862   -2.064583    0.566301   -0.022292   -0.103046    0.024529
13
* Frequency(37) 3544.0869
C     1.646674    0.274361   -0.194259    0.001357    0.002391   -0.000453
C     1.420816   -1.039630    0.025052    0.002104    0.000415   -0.000098
N     0.133465   -1.542329    0.218999   -0.017492   -0.145829    0.022791
C    -0.924870   -0.711543    0.195299   -0.000666    0.002152   -0.000259
N    -0.734850    0.592349   -0.024627   -0.024017    0.020628   -0.000796
C     0.536314    1.215794   -0.237817   -0.000261   -0.002215    0.000345
O    -2.146148   -1.109556    0.377069   -0.000014    0.006679   -0.001306
O     0.589986    2.411300   -0.425938   -0.000067    0.001294   -0.000250
H     2.205631   -1.793902    0.067927   -0.008786    0.007980   -0.000214
H     0.034026   -2.309859    0.337269    0.261261    1.909733   -0.303572
H     2.655099    0.658085   -0.342645   -0.002914   -0.000300    0.000362
H    -1.518492    1.171642   -0.034125    0.320606   -0.233825    0.003493
H    -2.241396   -2.076293    0.569089   -0.022292   -0.103046    0.024529
13
* Frequency(37) 3544.0869
C     1.646812    0.274603   -0.194305    0.001357    0.002391   -0.000453
C     1.421029   -1.039588    0.025042    0.002104    0.000415   -0.000098
N     0.131693   -1.557106    0.221308   -0.017492   -0.145829    0.022791
C    -0.924937   -0.711325    0.195273   -0.000666    0.002152   -0.000259
N    -0.737284    0.594439   -0.024708   -0.024017    0.020628   -0.000796
C     0.536288    1.215570   -0.237782   -0.000261   -0.002215    0.000345
O    -2.146149   -1.108879    0.376937   -0.000014    0.006679   -0.001306
O     0.589979    2.411431   -0.425963   -0.000067    0.001294   -0.000250
H     2.204740   -1.793093    0.067906   -0.008786    0.007980   -0.000214
H     0.060500   -2.116347    0.306508    0.261261    1.909733   -0.303572
H     2.654803    0.658054   -0.342608   -0.002914   -0.000300    0.000362
H    -1.486005    1.147949   -0.033771    0.320606   -0.233825    0.003493
H    -2.243655   -2.086735    0.571575   -0.022292   -0.103046    0.024529
13
* Frequency(37) 3544.0869
C     1.646918    0.274789   -0.194340    0.001357    0.002391   -0.000453
C     1.421193   -1.039556    0.025035    0.002104    0.000415   -0.000098
N     0.130328   -1.568486    0.223087   -0.017492   -0.145829    0.022791
C    -0.924989   -0.711157    0.195253   -0.000666    0.002152   -0.000259
N    -0.739158    0.596048   -0.024770   -0.024017    0.020628   -0.000796
C     0.536268    1.215397   -0.237755   -0.000261   -0.002215    0.000345
O    -2.146150   -1.108358    0.376835   -0.000014    0.006679   -0.001306
O     0.589974    2.411532   -0.425983   -0.000067    0.001294   -0.000250
H     2.204055   -1.792471    0.067889   -0.008786    0.007980   -0.000214
H     0.080887   -1.967323    0.282819    0.261261    1.909733   -0.303572
H     2.654576    0.658031   -0.342580   -0.002914   -0.000300    0.000362
H    -1.460987    1.129702   -0.033499    0.320606   -0.233825    0.003493
H    -2.245394   -2.094776    0.573489   -0.022292   -0.103046    0.024529
13
* Frequency(37) 3544.0869
C     1.646980    0.274900   -0.194361    0.001357    0.002391   -0.000453
C     1.421291   -1.039536    0.025030    0.002104    0.000415   -0.000098
N     0.129518   -1.575235    0.224142   -0.017492   -0.145829    0.022791
C    -0.925020   -0.711057    0.195241   -0.000666    0.002152   -0.000259
N    -0.740270    0.597003   -0.024807   -0.024017    0.020628   -0.000796
C     0.536255    1.215294   -0.237739   -0.000261   -0.002215    0.000345
O    -2.146151   -1.108049    0.376774   -0.000014    0.006679   -0.001306
O     0.589971    2.411592   -0.425994   -0.000067    0.001294   -0.000250
H     2.203648   -1.792101    0.067879   -0.008786    0.007980   -0.000214
H     0.092978   -1.878937    0.268769    0.261261    1.909733   -0.303572
H     2.654441    0.658017   -0.342563   -0.002914   -0.000300    0.000362
H    -1.446149    1.118880   -0.033337    0.320606   -0.233825    0.003493
H    -2.246426   -2.099545    0.574624   -0.022292   -0.103046    0.024529
13
* Frequency(37) 3544.0869
C     1.646993    0.274923   -0.194365    0.001357    0.002391   -0.000453
C     1.421311   -1.039532    0.025029    0.002104    0.000415   -0.000098
N     0.129352   -1.576623    0.224358   -0.017492   -0.145829    0.022791
C    -0.925026   -0.711037    0.195238   -0.000666    0.002152   -0.000259
N    -0.740498    0.597199   -0.024814   -0.024017    0.020628   -0.000796
C     0.536253    1.215273   -0.237736   -0.000261   -0.002215    0.000345
O    -2.146151   -1.107985    0.376762   -0.000014    0.006679   -0.001306
O     0.589971    2.411604   -0.425997   -0.000067    0.001294   -0.000250
H     2.203565   -1.792025    0.067877   -0.008786    0.007980   -0.000214
H     0.095464   -1.860767    0.265881    0.261261    1.909733   -0.303572
H     2.654414    0.658014   -0.342560   -0.002914   -0.000300    0.000362
H    -1.443098    1.116656   -0.033304    0.320606   -0.233825    0.003493
H    -2.246638   -2.100526    0.574857   -0.022292   -0.103046    0.024529
13
* Frequency(37) 3544.0869
C     1.646955    0.274855   -0.194352    0.001357    0.002391   -0.000453
C     1.421251   -1.039544    0.025032    0.002104    0.000415   -0.000098
N     0.129847   -1.572498    0.223714   -0.017492   -0.145829    0.022791
C    -0.925008   -0.711098    0.195246   -0.000666    0.002152   -0.000259
N    -0.739819    0.596616   -0.024792   -0.024017    0.020628   -0.000796
C     0.536260    1.215336   -0.237745   -0.000261   -0.002215    0.000345
O    -2.146151   -1.108174    0.376799   -0.000014    0.006679   -0.001306
O     0.589972    2.411568   -0.425990   -0.000067    0.001294   -0.000250
H     2.203813   -1.792251    0.067883   -0.008786    0.007980   -0.000214
H     0.088075   -1.914782    0.274467    0.261261    1.909733   -0.303572
H     2.654496    0.658022   -0.342570   -0.002914   -0.000300    0.000362
H    -1.452166    1.123269   -0.033403    0.320606   -0.233825    0.003493
H    -2.246007   -2.097611    0.574164   -0.022292   -0.103046    0.024529
13
* Frequency(37) 3544.0869
C     1.646870    0.274705   -0.194324    0.001357    0.002391   -0.000453
C     1.421119   -1.039570    0.025038    0.002104    0.000415   -0.000098
N     0.130949   -1.563308    0.222278   -0.017492   -0.145829    0.022791
C    -0.924966   -0.711233    0.195262   -0.000666    0.002152   -0.000259
N    -0.738305    0.595316   -0.024741   -0.024017    0.020628   -0.000796
C     0.536277    1.215475   -0.237767   -0.000261   -0.002215    0.000345
O    -2.146150   -1.108595    0.376881   -0.000014    0.006679   -0.001306
O     0.589977    2.411486   -0.425974   -0.000067    0.001294   -0.000250
H     2.204367   -1.792754    0.067897   -0.008786    0.007980   -0.000214
H     0.071611   -2.035128    0.293597    0.261261    1.909733   -0.303572
H     2.654680    0.658041   -0.342593   -0.002914   -0.000300    0.000362
H    -1.472370    1.138004   -0.033623    0.320606   -0.233825    0.003493
H    -2.244603   -2.091117    0.572618   -0.022292   -0.103046    0.024529
13
* Frequency(37) 3544.0869
C     1.646746    0.274487   -0.194283    0.001357    0.002391   -0.000453
C     1.420927   -1.039608    0.025047    0.002104    0.000415   -0.000098
N     0.132539   -1.550049    0.220205   -0.017492   -0.145829    0.022791
C    -0.924905   -0.711429    0.195286   -0.000666    0.002152   -0.000259
N    -0.736122    0.593441   -0.024669   -0.024017    0.020628   -0.000796
C     0.536301    1.215677   -0.237798   -0.000261   -0.002215    0.000345
O    -2.146148   -1.109202    0.377000   -0.000014    0.006679   -0.001306
O     0.589983    2.411368   -0.425951   -0.000067    0.001294   -0.000250
H     2.205166   -1.793480    0.067916   -0.008786    0.007980   -0.000214
H     0.047857   -2.208764    0.321199    0.261261    1.909733   -0.303572
H     2.654944    0.658069   -0.342626   -0.002914   -0.000300    0.000362
H    -1.501520    1.159264   -0.033940    0.320606   -0.233825    0.003493
H    -2.242576   -2.081748    0.570388   -0.022292   -0.103046    0.024529
13
* Frequency(37) 3544.0869
C     1.646598    0.274227   -0.194233    0.001357    0.002391   -0.000453
C     1.420698   -1.039653    0.025058    0.002104    0.000415   -0.000098
N     0.134445   -1.534158    0.217722   -0.017492   -0.145829    0.022791
C    -0.924832   -0.711664    0.195314   -0.000666    0.002152   -0.000259
N    -0.733505    0.591193   -0.024582   -0.024017    0.020628   -0.000796
C     0.536329    1.215918   -0.237836   -0.000261   -0.002215    0.000345
O    -2.146147   -1.109930    0.377142   -0.000014    0.006679   -0.001306
O     0.589990    2.411227   -0.425924   -0.000067    0.001294   -0.000250
H     2.206123   -1.794349    0.067940   -0.008786    0.007980   -0.000214
H     0.019386   -2.416875    0.354280    0.261261    1.909733   -0.303572
H     2.655262    0.658101   -0.342665   -0.002914   -0.000300    0.000362
H    -1.536457    1.184745   -0.034321    0.320606   -0.233825    0.003493
H    -2.240147   -2.070519    0.567715   -0.022292   -0.103046    0.024529
13
* Frequency(37) 3544.0869
C     1.646442    0.273951   -0.194181    0.001357    0.002391   -0.000453
C     1.420455   -1.039701    0.025069    0.002104    0.000415   -0.000098
N     0.136461   -1.517356    0.215096   -0.017492   -0.145829    0.022791
C    -0.924756   -0.711911    0.195344   -0.000666    0.002152   -0.000259
N    -0.730738    0.588816   -0.024491   -0.024017    0.020628   -0.000796
C     0.536359    1.216173   -0.237876   -0.000261   -0.002215    0.000345
O    -2.146145   -1.110699    0.377293   -0.000014    0.006679   -0.001306
O     0.589998    2.411078   -0.425895   -0.000067    0.001294   -0.000250
H     2.207135   -1.795269    0.067964   -0.008786    0.007980   -0.000214
H    -0.010715   -2.636907    0.389256    0.261261    1.909733   -0.303572
H     2.655598    0.658136   -0.342707   -0.002914   -0.000300    0.000362
H    -1.573396    1.211685   -0.034724    0.320606   -0.233825    0.003493
H    -2.237578   -2.058646    0.564888   -0.022292   -0.103046    0.024529
13
* Frequency(37) 3544.0869
C     1.646294    0.273690   -0.194132    0.001357    0.002391   -0.000453
C     1.420226   -1.039746    0.025080    0.002104    0.000415   -0.000098
N     0.138367   -1.501464    0.212612   -0.017492   -0.145829    0.022791
C    -0.924683   -0.712146    0.195372   -0.000666    0.002152   -0.000259
N    -0.728120    0.586568   -0.024404   -0.024017    0.020628   -0.000796
C     0.536387    1.216415   -0.237914   -0.000261   -0.002215    0.000345
O    -2.146144   -1.111427    0.377435   -0.000014    0.006679   -0.001306
O     0.590005    2.410937   -0.425868   -0.000067    0.001294   -0.000250
H     2.208093   -1.796138    0.067988   -0.008786    0.007980   -0.000214
H    -0.039186   -2.845017    0.422337    0.261261    1.909733   -0.303572
H     2.655915    0.658169   -0.342746   -0.002914   -0.000300    0.000362
H    -1.608334    1.237166   -0.035104    0.320606   -0.233825    0.003493
H    -2.235149   -2.047417    0.562215   -0.022292   -0.103046    0.024529
13
* Frequency(37) 3544.0869
C     1.646171    0.273473   -0.194091    0.001357    0.002391   -0.000453
C     1.420035   -1.039784    0.025089    0.002104    0.000415   -0.000098
N     0.139957   -1.488205    0.210540   -0.017492   -0.145829    0.022791
C    -0.924623   -0.712342    0.195395   -0.000666    0.002152   -0.000259
N    -0.725937    0.584692   -0.024331   -0.024017    0.020628   -0.000796
C     0.536411    1.216616   -0.237945   -0.000261   -0.002215    0.000345
O    -2.146143   -1.112034    0.377554   -0.000014    0.006679   -0.001306
O     0.590011    2.410820   -0.425845   -0.000067    0.001294   -0.000250
H     2.208892   -1.796864    0.068007   -0.008786    0.007980   -0.000214
H    -0.062940   -3.018653    0.449939    0.261261    1.909733   -0.303572
H     2.656180    0.658196   -0.342779   -0.002914   -0.000300    0.000362
H    -1.637484    1.258426   -0.035422    0.320606   -0.233825    0.003493
H    -2.233122   -2.038048    0.559985   -0.022292   -0.103046    0.024529
13
* Frequency(37) 3544.0869
C     1.646085    0.273322   -0.194062    0.001357    0.002391   -0.000453
C     1.419902   -1.039810    0.025095    0.002104    0.000415   -0.000098
N     0.141059   -1.479015    0.209104   -0.017492   -0.145829    0.022791
C    -0.924581   -0.712477    0.195412   -0.000666    0.002152   -0.000259
N    -0.724423    0.583392   -0.024281   -0.024017    0.020628   -0.000796
C     0.536428    1.216756   -0.237967   -0.000261   -0.002215    0.000345
O    -2.146142   -1.112455    0.377636   -0.000014    0.006679   -0.001306
O     0.590015    2.410738   -0.425829   -0.000067    0.001294   -0.000250
H     2.209445   -1.797367    0.068021   -0.008786    0.007980   -0.000214
H    -0.079404   -3.139000    0.469069    0.261261    1.909733   -0.303572
H     2.656364    0.658215   -0.342802   -0.002914   -0.000300    0.000362
H    -1.657688    1.273161   -0.035642    0.320606   -0.233825    0.003493
H    -2.231717   -2.031554    0.558439   -0.022292   -0.103046    0.024529
13
* Frequency(37) 3544.0869
C     1.646047    0.273255   -0.194049    0.001357    0.002391   -0.000453
C     1.419843   -1.039822    0.025098    0.002104    0.000415   -0.000098
N     0.141554   -1.474891    0.208459   -0.017492   -0.145829    0.022791
C    -0.924562   -0.712538    0.195419   -0.000666    0.002152   -0.000259
N    -0.723744    0.582809   -0.024259   -0.024017    0.020628   -0.000796
C     0.536435    1.216818   -0.237976   -0.000261   -0.002215    0.000345
O    -2.146141   -1.112644    0.377673   -0.000014    0.006679   -0.001306
O     0.590017    2.410701   -0.425822   -0.000067    0.001294   -0.000250
H     2.209694   -1.797593    0.068027   -0.008786    0.007980   -0.000214
H    -0.086794   -3.193014    0.477655    0.261261    1.909733   -0.303572
H     2.656446    0.658223   -0.342812   -0.002914   -0.000300    0.000362
H    -1.666756    1.279774   -0.035741    0.320606   -0.233825    0.003493
H    -2.231087   -2.028640    0.557746   -0.022292   -0.103046    0.024529
13
* Frequency(37) 3544.0869
C     1.646060    0.273277   -0.194054    0.001357    0.002391   -0.000453
C     1.419863   -1.039818    0.025097    0.002104    0.000415   -0.000098
N     0.141388   -1.476278    0.208676   -0.017492   -0.145829    0.022791
C    -0.924568   -0.712518    0.195417   -0.000666    0.002152   -0.000259
N    -0.723972    0.583005   -0.024266   -0.024017    0.020628   -0.000796
C     0.536432    1.216797   -0.237973   -0.000261   -0.002215    0.000345
O    -2.146141   -1.112581    0.377660   -0.000014    0.006679   -0.001306
O     0.590016    2.410714   -0.425824   -0.000067    0.001294   -0.000250
H     2.209610   -1.797517    0.068025   -0.008786    0.007980   -0.000214
H    -0.084308   -3.174844    0.474767    0.261261    1.909733   -0.303572
H     2.656419    0.658220   -0.342809   -0.002914   -0.000300    0.000362
H    -1.663705    1.277550   -0.035708    0.320606   -0.233825    0.003493
H    -2.231299   -2.029620    0.557979   -0.022292   -0.103046    0.024529
13
* Frequency(37) 3544.0869
C     1.646122    0.273388   -0.194075    0.001357    0.002391   -0.000453
C     1.419960   -1.039799    0.025092    0.002104    0.000415   -0.000098
N     0.140578   -1.483028    0.209731   -0.017492   -0.145829    0.022791
C    -0.924599   -0.712418    0.195405   -0.000666    0.002152   -0.000259
N    -0.725084    0.583960   -0.024303   -0.024017    0.020628   -0.000796
C     0.536420    1.216695   -0.237957   -0.000261   -0.002215    0.000345
O    -2.146142   -1.112272    0.377600   -0.000014    0.006679   -0.001306
O     0.590013    2.410774   -0.425836   -0.000067    0.001294   -0.000250
H     2.209204   -1.797147    0.068015   -0.008786    0.007980   -0.000214
H    -0.072216   -3.086458    0.460717    0.261261    1.909733   -0.303572
H     2.656284    0.658207   -0.342792   -0.002914   -0.000300    0.000362
H    -1.648867    1.266728   -0.035546    0.320606   -0.233825    0.003493
H    -2.232331   -2.034389    0.559114   -0.022292   -0.103046    0.024529
13
* Frequency(37) 3544.0869
C     1.646228    0.273575   -0.194110    0.001357    0.002391   -0.000453
C     1.420124   -1.039766    0.025085    0.002104    0.000415   -0.000098
N     0.139213   -1.494407    0.211509   -0.017492   -0.145829    0.022791
C    -0.924651   -0.712250    0.195384   -0.000666    0.002152   -0.000259
N    -0.726958    0.585570   -0.024365   -0.024017    0.020628   -0.000796
C     0.536400    1.216522   -0.237930   -0.000261   -0.002215    0.000345
O    -2.146143   -1.111750    0.377498   -0.000014    0.006679   -0.001306
O     0.590008    2.410875   -0.425855   -0.000067    0.001294   -0.000250
H     2.208518   -1.796525    0.067998   -0.008786    0.007980   -0.000214
H    -0.051829   -2.937434    0.437028    0.261261    1.909733   -0.303572
H     2.656056    0.658183   -0.342764   -0.002914   -0.000300    0.000362
H    -1.623849    1.248481   -0.035273    0.320606   -0.233825    0.003493
H    -2.234070   -2.042430    0.561028   -0.022292   -0.103046    0.024529
13
* Frequency(37) 3544.0869
C     1.646366    0.273817   -0.194156    0.001357    0.002391   -0.000453
C     1.420338   -1.039724    0.025075    0.002104    0.000415   -0.000098
N     0.137441   -1.509184    0.213819   -0.017492   -0.145829    0.022791
C    -0.924718   -0.712032    0.195358   -0.000666    0.002152   -0.000259
N    -0.729392    0.587660   -0.024446   -0.024017    0.020628   -0.000796
C     0.536374    1.216297   -0.237895   -0.000261   -0.002215    0.000345
O    -2.146145   -1.111074    0.377366   -0.000014    0.006679   -0.001306
O     0.590001    2.411006   -0.425881   -0.000067    0.001294   -0.000250
H     2.207628   -1.795716    0.067976   -0.008786    0.007980   -0.000214
H    -0.025356   -2.743922    0.406267    0.261261    1.909733   -0.303572
H     2.655761    0.658153   -0.342727   -0.002914   -0.000300    0.000362
H    -1.591362    1.224788   -0.034919    0.320606   -0.233825    0.003493
H    -2.236329   -2.052872    0.563514   -0.022292   -0.103046    0.024529
13
* Frequency(37) 3544.0869
C     1.646520    0.274089   -0.194207    0.001357    0.002391   -0.000453
C     1.420577   -1.039677    0.025063    0.002104    0.000415   -0.000098
N     0.135453   -1.525757    0.216409   -0.017492   -0.145829    0.022791
C    -0.924794   -0.711788    0.195329   -0.000666    0.002152   -0.000259
N    -0.732121    0.590004   -0.024536   -0.024017    0.020628   -0.000796
C     0.536344    1.216046   -0.237856   -0.000261   -0.002215    0.000345
O    -2.146146   -1.110315    0.377217   -0.000014    0.006679   -0.001306
O     0.589994    2.411153   -0.425909   -0.000067    0.001294   -0.000250
H     2.206629   -1.794809    0.067952   -0.008786    0.007980   -0.000214
H     0.004335   -2.526891    0.371768    0.261261    1.909733   -0.303572
H     2.655430    0.658119   -0.342686   -0.002914   -0.000300    0.000362
H    -1.554927    1.198215   -0.034522    0.320606   -0.233825    0.003493
H    -2.238862   -2.064583    0.566301   -0.022292   -0.103046    0.024529
