13
* (null), Energy   -1000.0000000
C     1.646520    0.274089   -0.194207    0.699408   -0.033828   -0.052304
C     1.420577   -1.039677    0.025063    0.158048    0.085650   -0.034556
N     0.135453   -1.525757    0.216409   -0.089951    0.598718   -0.095697
C    -0.924794   -0.711788    0.195329   -0.341255    0.281607   -0.002620
N    -0.732121    0.590004   -0.024536    0.037667    0.082138   -0.018847
C     0.536344    1.216046   -0.237856    0.329139   -0.373228    0.031108
O    -2.146146   -1.110315    0.377217   -0.225530   -0.228079    0.051608
O     0.589994    2.411153   -0.425909   -0.439926   -0.380458    0.095885
H     2.206629   -1.794809    0.067952   -0.294467   -0.385275    0.075290
H     0.004335   -2.526891    0.371768   -0.063611    0.637099    0.026622
H     2.655430    0.658119   -0.342686    0.701189   -0.021029   -0.048058
H    -1.554927    1.198215   -0.034522    0.524699    0.731889   -0.162153
H    -2.238862   -2.064583    0.566301    0.348064   -0.290778    0.054493
13
* Frequency(11)  536.4692
C     1.726004    0.270244   -0.200151    0.699408   -0.033828   -0.052304
C     1.438538   -1.029944    0.021136    0.158048    0.085650   -0.034556
N     0.125230   -1.457716    0.205533   -0.089951    0.598718   -0.095697
C    -0.963576   -0.679784    0.195031   -0.341255    0.281607   -0.002620
N    -0.727841    0.599339   -0.026678    0.037667    0.082138   -0.018847
C     0.573749    1.173630   -0.234321    0.329139   -0.373228    0.031108
O    -2.171776   -1.136235    0.383082   -0.225530   -0.228079    0.051608
O     0.539999    2.367916   -0.415012   -0.439926   -0.380458    0.095885
H     2.173165   -1.838594    0.076508   -0.294467   -0.385275    0.075290
H    -0.002894   -2.454488    0.374793   -0.063611    0.637099    0.026622
H     2.735116    0.655729   -0.348148    0.701189   -0.021029   -0.048058
H    -1.495298    1.281390   -0.052950    0.524699    0.731889   -0.162153
H    -2.199307   -2.097628    0.572494    0.348064   -0.290778    0.054493
13
* Frequency(11)  536.4692
C     1.796875    0.266817   -0.205451    0.699408   -0.033828   -0.052304
C     1.454553   -1.021265    0.017635    0.158048    0.085650   -0.034556
N     0.116116   -1.397048    0.195837   -0.089951    0.598718   -0.095697
C    -0.998155   -0.651249    0.194766   -0.341255    0.281607   -0.002620
N    -0.724024    0.607662   -0.028588    0.037667    0.082138   -0.018847
C     0.607100    1.135811   -0.231169    0.329139   -0.373228    0.031108
O    -2.194629   -1.159346    0.388312   -0.225530   -0.228079    0.051608
O     0.495421    2.329364   -0.405296   -0.439926   -0.380458    0.095885
H     2.143326   -1.877633    0.084137   -0.294467   -0.385275    0.075290
H    -0.009339   -2.389931    0.377491   -0.063611    0.637099    0.026622
H     2.806168    0.653598   -0.353017    0.701189   -0.021029   -0.048058
H    -1.442130    1.355552   -0.069381    0.524699    0.731889   -0.162153
H    -2.164038   -2.127093    0.578016    0.348064   -0.290778    0.054493
13
* Frequency(11)  536.4692
C     1.851452    0.264177   -0.209533    0.699408   -0.033828   -0.052304
C     1.466886   -1.014581    0.014938    0.158048    0.085650   -0.034556
N     0.109096   -1.350327    0.188369   -0.089951    0.598718   -0.095697
C    -1.024785   -0.629274    0.194561   -0.341255    0.281607   -0.002620
N    -0.721085    0.614071   -0.030059    0.037667    0.082138   -0.018847
C     0.632784    1.106687   -0.228741    0.329139   -0.373228    0.031108
O    -2.212228   -1.177144    0.392339   -0.225530   -0.228079    0.051608
O     0.461092    2.299675   -0.397814   -0.439926   -0.380458    0.095885
H     2.120348   -1.907698    0.090012   -0.294467   -0.385275    0.075290
H    -0.014303   -2.340215    0.379569   -0.063611    0.637099    0.026622
H     2.860884    0.651957   -0.356767    0.701189   -0.021029   -0.048058
H    -1.401186    1.412664   -0.082034    0.524699    0.731889   -0.162153
H    -2.136877   -2.149783    0.582268    0.348064   -0.290778    0.054493
13
* Frequency(11)  536.4692
C     1.883822    0.262611   -0.211953    0.699408   -0.033828   -0.052304
C     1.474201   -1.010617    0.013339    0.158048    0.085650   -0.034556
N     0.104933   -1.322618    0.183940   -0.089951    0.598718   -0.095697
C    -1.040579   -0.616241    0.194440   -0.341255    0.281607   -0.002620
N    -0.719341    0.617873   -0.030931    0.037667    0.082138   -0.018847
C     0.648018    1.089413   -0.227301    0.329139   -0.373228    0.031108
O    -2.222666   -1.187700    0.394727   -0.225530   -0.228079    0.051608
O     0.440731    2.282067   -0.393376   -0.439926   -0.380458    0.095885
H     2.106720   -1.925529    0.093497   -0.294467   -0.385275    0.075290
H    -0.017247   -2.310729    0.380801   -0.063611    0.637099    0.026622
H     2.893336    0.650984   -0.358992    0.701189   -0.021029   -0.048058
H    -1.376902    1.446538   -0.089539    0.524699    0.731889   -0.162153
H    -2.120768   -2.163241    0.584790    0.348064   -0.290778    0.054493
13
* Frequency(11)  536.4692
C     1.890477    0.262289   -0.212451    0.699408   -0.033828   -0.052304
C     1.475705   -1.009802    0.013010    0.158048    0.085650   -0.034556
N     0.104078   -1.316921    0.183029   -0.089951    0.598718   -0.095697
C    -1.043825   -0.613562    0.194415   -0.341255    0.281607   -0.002620
N    -0.718983    0.618654   -0.031110    0.037667    0.082138   -0.018847
C     0.651149    1.085862   -0.227005    0.329139   -0.373228    0.031108
O    -2.224812   -1.189870    0.395218   -0.225530   -0.228079    0.051608
O     0.436546    2.278447   -0.392464   -0.439926   -0.380458    0.095885
H     2.103918   -1.929195    0.094213   -0.294467   -0.385275    0.075290
H    -0.017853   -2.304668    0.381054   -0.063611    0.637099    0.026622
H     2.900008    0.650784   -0.359449    0.701189   -0.021029   -0.048058
H    -1.371909    1.453501   -0.091082    0.524699    0.731889   -0.162153
H    -2.117456   -2.166007    0.585309    0.348064   -0.290778    0.054493
13
* Frequency(11)  536.4692
C     1.870695    0.263246   -0.210972    0.699408   -0.033828   -0.052304
C     1.471234   -1.012225    0.013988    0.158048    0.085650   -0.034556
N     0.106622   -1.333855    0.185736   -0.089951    0.598718   -0.095697
C    -1.034173   -0.621527    0.194489   -0.341255    0.281607   -0.002620
N    -0.720048    0.616331   -0.030577    0.037667    0.082138   -0.018847
C     0.641840    1.096418   -0.227885    0.329139   -0.373228    0.031108
O    -2.218433   -1.183419    0.393759   -0.225530   -0.228079    0.051608
O     0.448989    2.289208   -0.395176   -0.439926   -0.380458    0.095885
H     2.112247   -1.918298    0.092084   -0.294467   -0.385275    0.075290
H    -0.016053   -2.322687    0.380301   -0.063611    0.637099    0.026622
H     2.880175    0.651378   -0.358090    0.701189   -0.021029   -0.048058
H    -1.386750    1.432800   -0.086496    0.524699    0.731889   -0.162153
H    -2.127301   -2.157783    0.583768    0.348064   -0.290778    0.054493
13
* Frequency(11)  536.4692
C     1.826620    0.265378   -0.207676    0.699408   -0.033828   -0.052304
C     1.461275   -1.017622    0.016165    0.158048    0.085650   -0.034556
N     0.112290   -1.371585    0.191767   -0.089951    0.598718   -0.095697
C    -1.012668   -0.639273    0.194654   -0.341255    0.281607   -0.002620
N    -0.722422    0.611155   -0.029389    0.037667    0.082138   -0.018847
C     0.621098    1.119938   -0.229846    0.329139   -0.373228    0.031108
O    -2.204221   -1.169046    0.390507   -0.225530   -0.228079    0.051608
O     0.476712    2.313183   -0.401219   -0.439926   -0.380458    0.095885
H     2.130803   -1.894019    0.087339   -0.294467   -0.385275    0.075290
H    -0.012045   -2.362836    0.378623   -0.063611    0.637099    0.026622
H     2.835988    0.652704   -0.355061    0.701189   -0.021029   -0.048058
H    -1.419815    1.386679   -0.076277    0.524699    0.731889   -0.162153
H    -2.149235   -2.139459    0.580334    0.348064   -0.290778    0.054493
13
* Frequency(11)  536.4692
C     1.763029    0.268454   -0.202920    0.699408   -0.033828   -0.052304
C     1.446905   -1.025410    0.019307    0.158048    0.085650   -0.034556
N     0.120469   -1.426021    0.200468   -0.089951    0.598718   -0.095697
C    -0.981641   -0.664877    0.194892   -0.341255    0.281607   -0.002620
N    -0.725847    0.603687   -0.027676    0.037667    0.082138   -0.018847
C     0.591172    1.153873   -0.232674    0.329139   -0.373228    0.031108
O    -2.183715   -1.148308    0.385814   -0.225530   -0.228079    0.051608
O     0.516710    2.347775   -0.409937   -0.439926   -0.380458    0.095885
H     2.157577   -1.858989    0.080494   -0.294467   -0.385275    0.075290
H    -0.006261   -2.420762    0.376203   -0.063611    0.637099    0.026622
H     2.772235    0.654616   -0.350692    0.701189   -0.021029   -0.048058
H    -1.467522    1.320134   -0.061534    0.524699    0.731889   -0.162153
H    -2.180881   -2.113021    0.575379    0.348064   -0.290778    0.054493
13
* Frequency(11)  536.4692
C     1.686812    0.272140   -0.197220    0.699408   -0.033828   -0.052304
C     1.429682   -1.034743    0.023073    0.158048    0.085650   -0.034556
N     0.130271   -1.491266    0.210896   -0.089951    0.598718   -0.095697
C    -0.944453   -0.695565    0.195178   -0.341255    0.281607   -0.002620
N    -0.729951    0.594736   -0.025622    0.037667    0.082138   -0.018847
C     0.555305    1.194545   -0.236064    0.329139   -0.373228    0.031108
O    -2.159138   -1.123454    0.380190   -0.225530   -0.228079    0.051608
O     0.564651    2.389235   -0.420386   -0.439926   -0.380458    0.095885
H     2.189666   -1.817004    0.072289   -0.294467   -0.385275    0.075290
H     0.000671   -2.490189    0.373302   -0.063611    0.637099    0.026622
H     2.695824    0.656907   -0.345455    0.701189   -0.021029   -0.048058
H    -1.524700    1.240378   -0.043864    0.524699    0.731889   -0.162153
H    -2.218811   -2.081334    0.569441    0.348064   -0.290778    0.054493
13
* Frequency(11)  536.4692
C     1.606229    0.276038   -0.191194    0.699408   -0.033828   -0.052304
C     1.411472   -1.044611    0.027054    0.158048    0.085650   -0.034556
N     0.140635   -1.560248    0.221922   -0.089951    0.598718   -0.095697
C    -0.905135   -0.728010    0.195480   -0.341255    0.281607   -0.002620
N    -0.734291    0.585272   -0.023451    0.037667    0.082138   -0.018847
C     0.517383    1.237547   -0.239648    0.329139   -0.373228    0.031108
O    -2.133154   -1.097175    0.374244   -0.225530   -0.228079    0.051608
O     0.615337    2.433070   -0.431433   -0.439926   -0.380458    0.095885
H     2.223593   -1.772614    0.063615   -0.294467   -0.385275    0.075290
H     0.008000   -2.563593    0.370234   -0.063611    0.637099    0.026622
H     2.615036    0.659330   -0.339917    0.701189   -0.021029   -0.048058
H    -1.585154    1.156052   -0.025181    0.524699    0.731889   -0.162153
H    -2.258914   -2.047831    0.563162    0.348064   -0.290778    0.054493
13
* Frequency(11)  536.4692
C     1.530012    0.279724   -0.185494    0.699408   -0.033828   -0.052304
C     1.394249   -1.053945    0.030820    0.158048    0.085650   -0.034556
N     0.150437   -1.625492    0.232350   -0.089951    0.598718   -0.095697
C    -0.867947   -0.758698    0.195765   -0.341255    0.281607   -0.002620
N    -0.738396    0.576322   -0.021397    0.037667    0.082138   -0.018847
C     0.481515    1.278219   -0.243038    0.329139   -0.373228    0.031108
O    -2.108577   -1.072321    0.368621   -0.225530   -0.228079    0.051608
O     0.663277    2.474530   -0.441882   -0.439926   -0.380458    0.095885
H     2.255682   -1.730629    0.055410   -0.294467   -0.385275    0.075290
H     0.014932   -2.633020    0.367333   -0.063611    0.637099    0.026622
H     2.538625    0.661622   -0.334680    0.701189   -0.021029   -0.048058
H    -1.642332    1.076296   -0.007511    0.524699    0.731889   -0.162153
H    -2.296844   -2.016144    0.557224    0.348064   -0.290778    0.054493
13
* Frequency(11)  536.4692
C     1.466420    0.282800   -0.180739    0.699408   -0.033828   -0.052304
C     1.379879   -1.061732    0.033962    0.158048    0.085650   -0.034556
N     0.158616   -1.679928    0.241051   -0.089951    0.598718   -0.095697
C    -0.836920   -0.784302    0.196003   -0.341255    0.281607   -0.002620
N    -0.741820    0.568854   -0.019683    0.037667    0.082138   -0.018847
C     0.451590    1.312153   -0.245867    0.329139   -0.373228    0.031108
O    -2.088071   -1.051584    0.363928   -0.225530   -0.228079    0.051608
O     0.703276    2.509122   -0.450600   -0.439926   -0.380458    0.095885
H     2.282455   -1.695599    0.048564   -0.294467   -0.385275    0.075290
H     0.020715   -2.690946    0.364913   -0.063611    0.637099    0.026622
H     2.474871    0.663534   -0.330311    0.701189   -0.021029   -0.048058
H    -1.690039    1.009751    0.007233    0.524699    0.731889   -0.162153
H    -2.328490   -1.989706    0.552269    0.348064   -0.290778    0.054493
13
* Frequency(11)  536.4692
C     1.422345    0.284931   -0.177443    0.699408   -0.033828   -0.052304
C     1.369919   -1.067130    0.036139    0.158048    0.085650   -0.034556
N     0.164284   -1.717658    0.247082   -0.089951    0.598718   -0.095697
C    -0.815415   -0.802048    0.196168   -0.341255    0.281607   -0.002620
N    -0.744194    0.563677   -0.018496    0.037667    0.082138   -0.018847
C     0.430848    1.335673   -0.247827    0.329139   -0.373228    0.031108
O    -2.073859   -1.037211    0.360676   -0.225530   -0.228079    0.051608
O     0.730999    2.533098   -0.456642   -0.439926   -0.380458    0.095885
H     2.301012   -1.671320    0.043820   -0.294467   -0.385275    0.075290
H     0.024724   -2.731094    0.363235   -0.063611    0.637099    0.026622
H     2.430684    0.664859   -0.327282    0.701189   -0.021029   -0.048058
H    -1.723104    0.963630    0.017451    0.524699    0.731889   -0.162153
H    -2.350424   -1.971382    0.548835    0.348064   -0.290778    0.054493
13
* Frequency(11)  536.4692
C     1.402563    0.285888   -0.175963    0.699408   -0.033828   -0.052304
C     1.365449   -1.069552    0.037117    0.158048    0.085650   -0.034556
N     0.166828   -1.734592    0.249788   -0.089951    0.598718   -0.095697
C    -0.805763   -0.810013    0.196242   -0.341255    0.281607   -0.002620
N    -0.745259    0.561354   -0.017963    0.037667    0.082138   -0.018847
C     0.421539    1.346229   -0.248707    0.329139   -0.373228    0.031108
O    -2.067480   -1.030760    0.359216   -0.225530   -0.228079    0.051608
O     0.743442    2.543858   -0.459354   -0.439926   -0.380458    0.095885
H     2.309341   -1.660423    0.041690   -0.294467   -0.385275    0.075290
H     0.026523   -2.749114    0.362482   -0.063611    0.637099    0.026622
H     2.410852    0.665454   -0.325923    0.701189   -0.021029   -0.048058
H    -1.737945    0.942929    0.022037    0.524699    0.731889   -0.162153
H    -2.360269   -1.963158    0.547294    0.348064   -0.290778    0.054493
13
* Frequency(11)  536.4692
C     1.409218    0.285566   -0.176461    0.699408   -0.033828   -0.052304
C     1.366952   -1.068737    0.036788    0.158048    0.085650   -0.034556
N     0.165973   -1.728896    0.248878   -0.089951    0.598718   -0.095697
C    -0.809010   -0.807334    0.196218   -0.341255    0.281607   -0.002620
N    -0.744901    0.562136   -0.018142    0.037667    0.082138   -0.018847
C     0.424670    1.342678   -0.248411    0.329139   -0.373228    0.031108
O    -2.069626   -1.032930    0.359707   -0.225530   -0.228079    0.051608
O     0.739256    2.540239   -0.458442   -0.439926   -0.380458    0.095885
H     2.306539   -1.664089    0.042407   -0.294467   -0.385275    0.075290
H     0.025918   -2.743052    0.362735   -0.063611    0.637099    0.026622
H     2.417523    0.665254   -0.326380    0.701189   -0.021029   -0.048058
H    -1.732952    0.949892    0.020495    0.524699    0.731889   -0.162153
H    -2.356957   -1.965925    0.547812    0.348064   -0.290778    0.054493
13
* Frequency(11)  536.4692
C     1.441588    0.284001   -0.178882    0.699408   -0.033828   -0.052304
C     1.374267   -1.064773    0.035189    0.158048    0.085650   -0.034556
N     0.161809   -1.701186    0.244449   -0.089951    0.598718   -0.095697
C    -0.824803   -0.794301    0.196096   -0.341255    0.281607   -0.002620
N    -0.743158    0.565937   -0.019014    0.037667    0.082138   -0.018847
C     0.439904    1.325405   -0.246971    0.329139   -0.373228    0.031108
O    -2.080064   -1.043486    0.362096   -0.225530   -0.228079    0.051608
O     0.718896    2.522630   -0.454004   -0.439926   -0.380458    0.095885
H     2.292910   -1.681920    0.045891   -0.294467   -0.385275    0.075290
H     0.022974   -2.713566    0.363967   -0.063611    0.637099    0.026622
H     2.449976    0.664280   -0.328605    0.701189   -0.021029   -0.048058
H    -1.708668    0.983766    0.012990    0.524699    0.731889   -0.162153
H    -2.340848   -1.979382    0.550335    0.348064   -0.290778    0.054493
13
* Frequency(11)  536.4692
C     1.496165    0.281361   -0.182963    0.699408   -0.033828   -0.052304
C     1.386600   -1.058090    0.032492    0.158048    0.085650   -0.034556
N     0.154790   -1.654466    0.236981   -0.089951    0.598718   -0.095697
C    -0.851433   -0.772326    0.195892   -0.341255    0.281607   -0.002620
N    -0.740218    0.572347   -0.020485    0.037667    0.082138   -0.018847
C     0.465588    1.296280   -0.244544    0.329139   -0.373228    0.031108
O    -2.097663   -1.061283    0.366123   -0.225530   -0.228079    0.051608
O     0.684567    2.492942   -0.446522   -0.439926   -0.380458    0.095885
H     2.269932   -1.711985    0.051766   -0.294467   -0.385275    0.075290
H     0.018010   -2.663851    0.366045   -0.063611    0.637099    0.026622
H     2.504692    0.662639   -0.332355    0.701189   -0.021029   -0.048058
H    -1.667724    1.040878    0.000336    0.524699    0.731889   -0.162153
H    -2.313687   -2.002073    0.554587    0.348064   -0.290778    0.054493
13
* Frequency(11)  536.4692
C     1.567036    0.277933   -0.188263    0.699408   -0.033828   -0.052304
C     1.402615   -1.049411    0.028991    0.158048    0.085650   -0.034556
N     0.145675   -1.593798    0.227284   -0.089951    0.598718   -0.095697
C    -0.886012   -0.743791    0.195626   -0.341255    0.281607   -0.002620
N    -0.736402    0.580670   -0.022395    0.037667    0.082138   -0.018847
C     0.498939    1.258461   -0.241391    0.329139   -0.373228    0.031108
O    -2.120516   -1.084395    0.371352   -0.225530   -0.228079    0.051608
O     0.639989    2.454390   -0.436806   -0.439926   -0.380458    0.095885
H     2.240094   -1.751024    0.059396   -0.294467   -0.385275    0.075290
H     0.011564   -2.599294    0.368742   -0.063611    0.637099    0.026622
H     2.575743    0.660508   -0.337224    0.701189   -0.021029   -0.048058
H    -1.614556    1.115040   -0.016094    0.524699    0.731889   -0.162153
H    -2.278418   -2.031537    0.560109    0.348064   -0.290778    0.054493
13
* Frequency(11)  536.4692
C     1.646520    0.274089   -0.194207    0.699408   -0.033828   -0.052304
C     1.420577   -1.039677    0.025063    0.158048    0.085650   -0.034556
N     0.135453   -1.525757    0.216409   -0.089951    0.598718   -0.095697
C    -0.924794   -0.711788    0.195329   -0.341255    0.281607   -0.002620
N    -0.732121    0.590004   -0.024536    0.037667    0.082138   -0.018847
C     0.536344    1.216046   -0.237856    0.329139   -0.373228    0.031108
O    -2.146146   -1.110315    0.377217   -0.225530   -0.228079    0.051608
O     0.589994    2.411153   -0.425909   -0.439926   -0.380458    0.095885
H     2.206629   -1.794809    0.067952   -0.294467   -0.385275    0.075290
H     0.004335   -2.526891    0.371768   -0.063611    0.637099    0.026622
H     2.655430    0.658119   -0.342686    0.701189   -0.021029   -0.048058
H    -1.554927    1.198215   -0.034522    0.524699    0.731889   -0.162153
H    -2.238862   -2.064583    0.566301    0.348064   -0.290778    0.054493
