13
* (null), Energy   -1000.0000000
C     1.393781    0.533776   -0.062691   -0.004463   -0.009067   -0.065166
C     1.168148   -0.779758    0.160441    0.021456    0.037555    0.236261
N    -0.116197   -1.262094    0.357179    0.007386    0.012585    0.078265
C    -1.173993   -0.446979    0.334824   -0.061150   -0.095807   -0.623953
N    -0.982141    0.854104    0.116669    0.000710    0.000784    0.007408
C     0.285100    1.476626   -0.101181    0.047699    0.073878    0.484304
O    -2.392774   -0.849779    0.515859    0.013609    0.021512    0.146270
O     0.338858    2.672655   -0.290012   -0.013199   -0.022022   -0.139353
H     1.953348   -1.535224    0.201378   -0.054642   -0.083722   -0.548758
H    -0.254993   -2.258813    0.525028   -0.006442   -0.011718   -0.077308
H     2.401547    0.916834   -0.219517   -0.155263   -0.248178   -1.620072
H    -1.805505    1.460126    0.102516    0.042792    0.068405    0.439138
H    -2.476740   -1.809302    0.672136    0.012340    0.019377    0.132015
13
* Frequency(16)  708.7803
C     1.393274    0.532745   -0.070096   -0.004463   -0.009067   -0.065166
C     1.170587   -0.775491    0.187291    0.021456    0.037555    0.236261
N    -0.115357   -1.260664    0.366074    0.007386    0.012585    0.078265
C    -1.180942   -0.457867    0.263915   -0.061150   -0.095807   -0.623953
N    -0.982060    0.854193    0.117511    0.000710    0.000784    0.007408
C     0.290521    1.485022   -0.046143    0.047699    0.073878    0.484304
O    -2.391228   -0.847335    0.532482    0.013609    0.021512    0.146270
O     0.337358    2.670152   -0.305849   -0.013199   -0.022022   -0.139353
H     1.947139   -1.544738    0.139014   -0.054642   -0.083722   -0.548758
H    -0.255725   -2.260145    0.516242   -0.006442   -0.011718   -0.077308
H     2.383902    0.888629   -0.403629   -0.155263   -0.248178   -1.620072
H    -1.800642    1.467900    0.152422    0.042792    0.068405    0.439138
H    -2.475338   -1.807099    0.687139    0.012340    0.019377    0.132015
13
* Frequency(16)  708.7803
C     1.392822    0.531827   -0.076699   -0.004463   -0.009067   -0.065166
C     1.172761   -0.771685    0.211231    0.021456    0.037555    0.236261
N    -0.114609   -1.259388    0.374005    0.007386    0.012585    0.078265
C    -1.187139   -0.467575    0.200690   -0.061150   -0.095807   -0.623953
N    -0.981988    0.854272    0.118261    0.000710    0.000784    0.007408
C     0.295354    1.492508    0.002932    0.047699    0.073878    0.484304
O    -2.389849   -0.845155    0.547303    0.013609    0.021512    0.146270
O     0.336021    2.667920   -0.319969   -0.013199   -0.022022   -0.139353
H     1.941602   -1.553222    0.083409   -0.054642   -0.083722   -0.548758
H    -0.256378   -2.261333    0.508409   -0.006442   -0.011718   -0.077308
H     2.368169    0.863482   -0.567791   -0.155263   -0.248178   -1.620072
H    -1.796306    1.474832    0.196919    0.042792    0.068405    0.439138
H    -2.474087   -1.805136    0.700516    0.012340    0.019377    0.132015
13
* Frequency(16)  708.7803
C     1.392474    0.531119   -0.081785   -0.004463   -0.009067   -0.065166
C     1.174435   -0.768755    0.229667    0.021456    0.037555    0.236261
N    -0.114033   -1.258406    0.380112    0.007386    0.012585    0.078265
C    -1.191910   -0.475051    0.152001   -0.061150   -0.095807   -0.623953
N    -0.981933    0.854333    0.118839    0.000710    0.000784    0.007408
C     0.299076    1.498273    0.040724    0.047699    0.073878    0.484304
O    -2.388787   -0.843476    0.558717    0.013609    0.021512    0.146270
O     0.334991    2.666202   -0.330844   -0.013199   -0.022022   -0.139353
H     1.937338   -1.559755    0.040587   -0.054642   -0.083722   -0.548758
H    -0.256881   -2.262247    0.502376   -0.006442   -0.011718   -0.077308
H     2.356053    0.844115   -0.694211   -0.155263   -0.248178   -1.620072
H    -1.792967    1.480170    0.231187    0.042792    0.068405    0.439138
H    -2.473124   -1.803624    0.710818    0.012340    0.019377    0.132015
13
* Frequency(16)  708.7803
C     1.392267    0.530699   -0.084801   -0.004463   -0.009067   -0.065166
C     1.175428   -0.767016    0.240602    0.021456    0.037555    0.236261
N    -0.113691   -1.257824    0.383734    0.007386    0.012585    0.078265
C    -1.194741   -0.479485    0.123123   -0.061150   -0.095807   -0.623953
N    -0.981900    0.854370    0.119182    0.000710    0.000784    0.007408
C     0.301284    1.501692    0.063138    0.047699    0.073878    0.484304
O    -2.388157   -0.842481    0.565487    0.013609    0.021512    0.146270
O     0.334380    2.665183   -0.337293   -0.013199   -0.022022   -0.139353
H     1.934809   -1.563630    0.015190   -0.054642   -0.083722   -0.548758
H    -0.257179   -2.262789    0.498798   -0.006442   -0.011718   -0.077308
H     2.348867    0.832629   -0.769191   -0.155263   -0.248178   -1.620072
H    -1.790986    1.483336    0.251511    0.042792    0.068405    0.439138
H    -2.472553   -1.802727    0.716927    0.012340    0.019377    0.132015
13
* Frequency(16)  708.7803
C     1.392225    0.530613   -0.085421   -0.004463   -0.009067   -0.065166
C     1.175632   -0.766659    0.242850    0.021456    0.037555    0.236261
N    -0.113621   -1.257704    0.384479    0.007386    0.012585    0.078265
C    -1.195322   -0.480397    0.117187   -0.061150   -0.095807   -0.623953
N    -0.981893    0.854377    0.119253    0.000710    0.000784    0.007408
C     0.301738    1.502395    0.067746    0.047699    0.073878    0.484304
O    -2.388027   -0.842276    0.566879    0.013609    0.021512    0.146270
O     0.334254    2.664973   -0.338619   -0.013199   -0.022022   -0.139353
H     1.934289   -1.564427    0.009968   -0.054642   -0.083722   -0.548758
H    -0.257240   -2.262901    0.498063   -0.006442   -0.011718   -0.077308
H     2.347390    0.830268   -0.784605   -0.155263   -0.248178   -1.620072
H    -1.790579    1.483986    0.255689    0.042792    0.068405    0.439138
H    -2.472436   -1.802543    0.718184    0.012340    0.019377    0.132015
13
* Frequency(16)  708.7803
C     1.392351    0.530870   -0.083577   -0.004463   -0.009067   -0.065166
C     1.175026   -0.767721    0.236168    0.021456    0.037555    0.236261
N    -0.113829   -1.258060    0.382265    0.007386    0.012585    0.078265
C    -1.193593   -0.477687    0.134834   -0.061150   -0.095807   -0.623953
N    -0.981913    0.854355    0.119043    0.000710    0.000784    0.007408
C     0.300389    1.500305    0.054048    0.047699    0.073878    0.484304
O    -2.388412   -0.842884    0.562742    0.013609    0.021512    0.146270
O     0.334628    2.665596   -0.334678   -0.013199   -0.022022   -0.139353
H     1.935834   -1.562059    0.025489   -0.054642   -0.083722   -0.548758
H    -0.257058   -2.262569    0.500249   -0.006442   -0.011718   -0.077308
H     2.351782    0.837287   -0.738783   -0.155263   -0.248178   -1.620072
H    -1.791789    1.482052    0.243268    0.042792    0.068405    0.439138
H    -2.472785   -1.803091    0.714450    0.012340    0.019377    0.132015
13
* Frequency(16)  708.7803
C     1.392632    0.531441   -0.079471   -0.004463   -0.009067   -0.065166
C     1.173673   -0.770088    0.221279    0.021456    0.037555    0.236261
N    -0.114295   -1.258853    0.377333    0.007386    0.012585    0.078265
C    -1.189739   -0.471650    0.174154   -0.061150   -0.095807   -0.623953
N    -0.981958    0.854306    0.118576    0.000710    0.000784    0.007408
C     0.297383    1.495650    0.023529    0.047699    0.073878    0.484304
O    -2.389270   -0.844240    0.553524    0.013609    0.021512    0.146270
O     0.335459    2.666984   -0.325896   -0.013199   -0.022022   -0.139353
H     1.939278   -1.556783    0.060071   -0.054642   -0.083722   -0.548758
H    -0.256652   -2.261831    0.505121   -0.006442   -0.011718   -0.077308
H     2.361566    0.852927   -0.636691   -0.155263   -0.248178   -1.620072
H    -1.794486    1.477741    0.215595    0.042792    0.068405    0.439138
H    -2.473562   -1.804312    0.706130    0.012340    0.019377    0.132015
13
* Frequency(16)  708.7803
C     1.393038    0.532265   -0.073546   -0.004463   -0.009067   -0.065166
C     1.171723   -0.773503    0.199798    0.021456    0.037555    0.236261
N    -0.114966   -1.259997    0.370217    0.007386    0.012585    0.078265
C    -1.184179   -0.462939    0.230885   -0.061150   -0.095807   -0.623953
N    -0.982023    0.854234    0.117903    0.000710    0.000784    0.007408
C     0.293046    1.488932   -0.020505    0.047699    0.073878    0.484304
O    -2.390507   -0.846196    0.540225    0.013609    0.021512    0.146270
O     0.336659    2.668986   -0.313226   -0.013199   -0.022022   -0.139353
H     1.944246   -1.549170    0.109965   -0.054642   -0.083722   -0.548758
H    -0.256066   -2.260765    0.512150   -0.006442   -0.011718   -0.077308
H     2.375683    0.875492   -0.489391   -0.155263   -0.248178   -1.620072
H    -1.798377    1.471521    0.175668    0.042792    0.068405    0.439138
H    -2.474684   -1.806074    0.694127    0.012340    0.019377    0.132015
13
* Frequency(16)  708.7803
C     1.393524    0.533253   -0.066445   -0.004463   -0.009067   -0.065166
C     1.169384   -0.777595    0.174052    0.021456    0.037555    0.236261
N    -0.115771   -1.261369    0.361688    0.007386    0.012585    0.078265
C    -1.177516   -0.452498    0.298879   -0.061150   -0.095807   -0.623953
N    -0.982100    0.854149    0.117096    0.000710    0.000784    0.007408
C     0.287848    1.480882   -0.073282    0.047699    0.073878    0.484304
O    -2.391990   -0.848540    0.524285    0.013609    0.021512    0.146270
O     0.338098    2.671386   -0.298040   -0.013199   -0.022022   -0.139353
H     1.950200   -1.540047    0.169765   -0.054642   -0.083722   -0.548758
H    -0.255364   -2.259488    0.520575   -0.006442   -0.011718   -0.077308
H     2.392602    0.902536   -0.312846   -0.155263   -0.248178   -1.620072
H    -1.803040    1.464067    0.127814    0.042792    0.068405    0.439138
H    -2.476029   -1.808185    0.679741    0.012340    0.019377    0.132015
13
* Frequency(16)  708.7803
C     1.394039    0.534298   -0.058936   -0.004463   -0.009067   -0.065166
C     1.166912   -0.781922    0.146831    0.021456    0.037555    0.236261
N    -0.116622   -1.262819    0.352671    0.007386    0.012585    0.078265
C    -1.170470   -0.441460    0.370769   -0.061150   -0.095807   -0.623953
N    -0.982182    0.854059    0.116242    0.000710    0.000784    0.007408
C     0.282352    1.472370   -0.129081    0.047699    0.073878    0.484304
O    -2.393558   -0.851019    0.507433    0.013609    0.021512    0.146270
O     0.339619    2.673923   -0.281984   -0.013199   -0.022022   -0.139353
H     1.956496   -1.530401    0.232991   -0.054642   -0.083722   -0.548758
H    -0.254622   -2.258138    0.529482   -0.006442   -0.011718   -0.077308
H     2.410491    0.931131   -0.126187   -0.155263   -0.248178   -1.620072
H    -1.807970    1.456186    0.077218    0.042792    0.068405    0.439138
H    -2.477451   -1.810418    0.664531    0.012340    0.019377    0.132015
13
* Frequency(16)  708.7803
C     1.394525    0.535286   -0.051835   -0.004463   -0.009067   -0.065166
C     1.164574   -0.786014    0.121084    0.021456    0.037555    0.236261
N    -0.117427   -1.264190    0.344142    0.007386    0.012585    0.078265
C    -1.163806   -0.431019    0.438763   -0.061150   -0.095807   -0.623953
N    -0.982259    0.853973    0.115435    0.000710    0.000784    0.007408
C     0.277154    1.464319   -0.181858    0.047699    0.073878    0.484304
O    -2.395041   -0.853363    0.491493    0.013609    0.021512    0.146270
O     0.341057    2.676323   -0.266798   -0.013199   -0.022022   -0.139353
H     1.962451   -1.521277    0.292791   -0.054642   -0.083722   -0.548758
H    -0.253920   -2.256861    0.537906   -0.006442   -0.011718   -0.077308
H     2.427410    0.958175    0.050358   -0.155263   -0.248178   -1.620072
H    -1.812633    1.448731    0.029364    0.042792    0.068405    0.439138
H    -2.478796   -1.812529    0.650145    0.012340    0.019377    0.132015
13
* Frequency(16)  708.7803
C     1.394931    0.536111   -0.045910   -0.004463   -0.009067   -0.065166
C     1.162623   -0.789429    0.099603    0.021456    0.037555    0.236261
N    -0.118099   -1.265335    0.337026    0.007386    0.012585    0.078265
C    -1.158246   -0.422308    0.495494   -0.061150   -0.095807   -0.623953
N    -0.982324    0.853902    0.114761    0.000710    0.000784    0.007408
C     0.272817    1.457602   -0.225891    0.047699    0.073878    0.484304
O    -2.396279   -0.855319    0.478194    0.013609    0.021512    0.146270
O     0.342257    2.678325   -0.254128   -0.013199   -0.022022   -0.139353
H     1.967419   -1.513665    0.342685   -0.054642   -0.083722   -0.548758
H    -0.253335   -2.255796    0.544935   -0.006442   -0.011718   -0.077308
H     2.441527    0.980740    0.197658   -0.155263   -0.248178   -1.620072
H    -1.816524    1.442512   -0.010564    0.042792    0.068405    0.439138
H    -2.479918   -1.814291    0.638142    0.012340    0.019377    0.132015
13
* Frequency(16)  708.7803
C     1.395212    0.536682   -0.041804   -0.004463   -0.009067   -0.065166
C     1.161271   -0.791796    0.084715    0.021456    0.037555    0.236261
N    -0.118564   -1.266128    0.332094    0.007386    0.012585    0.078265
C    -1.154393   -0.416271    0.534814   -0.061150   -0.095807   -0.623953
N    -0.982369    0.853852    0.114295    0.000710    0.000784    0.007408
C     0.269812    1.452946   -0.256411    0.047699    0.073878    0.484304
O    -2.397136   -0.856674    0.468976    0.013609    0.021512    0.146270
O     0.343089    2.679713   -0.245346   -0.013199   -0.022022   -0.139353
H     1.970862   -1.508389    0.377266   -0.054642   -0.083722   -0.548758
H    -0.252929   -2.255057    0.549807   -0.006442   -0.011718   -0.077308
H     2.451311    0.996380    0.299750   -0.155263   -0.248178   -1.620072
H    -1.819220    1.438201   -0.038237    0.042792    0.068405    0.439138
H    -2.480695   -1.815512    0.629823    0.012340    0.019377    0.132015
13
* Frequency(16)  708.7803
C     1.395338    0.536938   -0.039960   -0.004463   -0.009067   -0.065166
C     1.160664   -0.792858    0.078032    0.021456    0.037555    0.236261
N    -0.118773   -1.266484    0.329880    0.007386    0.012585    0.078265
C    -1.152663   -0.413561    0.552462   -0.061150   -0.095807   -0.623953
N    -0.982389    0.853830    0.114085    0.000710    0.000784    0.007408
C     0.268462    1.450857   -0.270109    0.047699    0.073878    0.484304
O    -2.397521   -0.857283    0.464839    0.013609    0.021512    0.146270
O     0.343462    2.680336   -0.241405   -0.013199   -0.022022   -0.139353
H     1.972408   -1.506021    0.392787   -0.054642   -0.083722   -0.548758
H    -0.252746   -2.254726    0.551993   -0.006442   -0.011718   -0.077308
H     2.455703    1.003399    0.345572   -0.155263   -0.248178   -1.620072
H    -1.820431    1.436266   -0.050657    0.042792    0.068405    0.439138
H    -2.481044   -1.816060    0.626089    0.012340    0.019377    0.132015
13
* Frequency(16)  708.7803
C     1.395296    0.536852   -0.040580   -0.004463   -0.009067   -0.065166
C     1.160868   -0.792501    0.080280    0.021456    0.037555    0.236261
N    -0.118703   -1.266364    0.330625    0.007386    0.012585    0.078265
C    -1.153245   -0.414473    0.546525   -0.061150   -0.095807   -0.623953
N    -0.982382    0.853838    0.114156    0.000710    0.000784    0.007408
C     0.268916    1.451560   -0.265501    0.047699    0.073878    0.484304
O    -2.397392   -0.857078    0.466231    0.013609    0.021512    0.146270
O     0.343337    2.680126   -0.242731   -0.013199   -0.022022   -0.139353
H     1.971888   -1.506818    0.387566   -0.054642   -0.083722   -0.548758
H    -0.252808   -2.254837    0.551258   -0.006442   -0.011718   -0.077308
H     2.454226    1.001038    0.330158   -0.155263   -0.248178   -1.620072
H    -1.820024    1.436917   -0.046479    0.042792    0.068405    0.439138
H    -2.480927   -1.815876    0.627345    0.012340    0.019377    0.132015
13
* Frequency(16)  708.7803
C     1.395089    0.536432   -0.043596   -0.004463   -0.009067   -0.065166
C     1.161861   -0.790762    0.091215    0.021456    0.037555    0.236261
N    -0.118361   -1.265781    0.334247    0.007386    0.012585    0.078265
C    -1.156075   -0.418907    0.517647   -0.061150   -0.095807   -0.623953
N    -0.982349    0.853874    0.114498    0.000710    0.000784    0.007408
C     0.271124    1.454979   -0.243086    0.047699    0.073878    0.484304
O    -2.396762   -0.856082    0.473001    0.013609    0.021512    0.146270
O     0.342726    2.679107   -0.249180   -0.013199   -0.022022   -0.139353
H     1.969359   -1.510693    0.362169   -0.054642   -0.083722   -0.548758
H    -0.253106   -2.255380    0.547680   -0.006442   -0.011718   -0.077308
H     2.447040    0.989552    0.255178   -0.155263   -0.248178   -1.620072
H    -1.818043    1.440083   -0.026155    0.042792    0.068405    0.439138
H    -2.480356   -1.814979    0.633455    0.012340    0.019377    0.132015
13
* Frequency(16)  708.7803
C     1.394741    0.535725   -0.048682   -0.004463   -0.009067   -0.065166
C     1.163536   -0.787832    0.109651    0.021456    0.037555    0.236261
N    -0.117785   -1.264799    0.340354    0.007386    0.012585    0.078265
C    -1.160847   -0.426383    0.468958   -0.061150   -0.095807   -0.623953
N    -0.982294    0.853935    0.115076    0.000710    0.000784    0.007408
C     0.274846    1.460744   -0.205294    0.047699    0.073878    0.484304
O    -2.395700   -0.854404    0.484415    0.013609    0.021512    0.146270
O     0.341696    2.677389   -0.260055   -0.013199   -0.022022   -0.139353
H     1.965095   -1.517226    0.319347   -0.054642   -0.083722   -0.548758
H    -0.253608   -2.256294    0.541647   -0.006442   -0.011718   -0.077308
H     2.434924    0.970185    0.128758   -0.155263   -0.248178   -1.620072
H    -1.814704    1.445421    0.008112    0.042792    0.068405    0.439138
H    -2.479393   -1.813467    0.643756    0.012340    0.019377    0.132015
13
* Frequency(16)  708.7803
C     1.394289    0.534806   -0.055285   -0.004463   -0.009067   -0.065166
C     1.165710   -0.784026    0.133591    0.021456    0.037555    0.236261
N    -0.117036   -1.263524    0.348285    0.007386    0.012585    0.078265
C    -1.167043   -0.436091    0.405733   -0.061150   -0.095807   -0.623953
N    -0.982222    0.854015    0.115827    0.000710    0.000784    0.007408
C     0.279679    1.468230   -0.156220    0.047699    0.073878    0.484304
O    -2.394321   -0.852224    0.499236    0.013609    0.021512    0.146270
O     0.340358    2.675157   -0.274175   -0.013199   -0.022022   -0.139353
H     1.959558   -1.525709    0.263741   -0.054642   -0.083722   -0.548758
H    -0.254261   -2.257482    0.533814   -0.006442   -0.011718   -0.077308
H     2.419191    0.945038   -0.035404   -0.155263   -0.248178   -1.620072
H    -1.810368    1.452352    0.052610    0.042792    0.068405    0.439138
H    -2.478142   -1.811504    0.657133    0.012340    0.019377    0.132015
13
* Frequency(16)  708.7803
C     1.393781    0.533776   -0.062691   -0.004463   -0.009067   -0.065166
C     1.168148   -0.779758    0.160441    0.021456    0.037555    0.236261
N    -0.116197   -1.262094    0.357179    0.007386    0.012585    0.078265
C    -1.173993   -0.446979    0.334824   -0.061150   -0.095807   -0.623953
N    -0.982141    0.854104    0.116669    0.000710    0.000784    0.007408
C     0.285100    1.476626   -0.101181    0.047699    0.073878    0.484304
O    -2.392774   -0.849779    0.515859    0.013609    0.021512    0.146270
O     0.338858    2.672655   -0.290012   -0.013199   -0.022022   -0.139353
H     1.953348   -1.535224    0.201378   -0.054642   -0.083722   -0.548758
H    -0.254993   -2.258813    0.525028   -0.006442   -0.011718   -0.077308
H     2.401547    0.916834   -0.219517   -0.155263   -0.248178   -1.620072
H    -1.805505    1.460126    0.102516    0.042792    0.068405    0.439138
H    -2.476740   -1.809302    0.672136    0.012340    0.019377    0.132015
