13
* (null), Energy   -1000.0000000
C     1.393781    0.533776   -0.062691    0.024782    0.040107    0.262957
C     1.168148   -0.779758    0.160441   -0.001449   -0.001910   -0.011550
N    -0.116197   -1.262094    0.357179   -0.024954   -0.038686   -0.255374
C    -1.173993   -0.446979    0.334824   -0.011656   -0.017319   -0.118108
N    -0.982141    0.854104    0.116669   -0.035392   -0.053400   -0.354065
C     0.285100    1.476626   -0.101181    0.001232    0.002521    0.015653
O    -2.392774   -0.849779    0.515859    0.046400    0.070344    0.467891
O     0.338858    2.672655   -0.290012    0.004881    0.005372    0.034851
H     1.953348   -1.535224    0.201378    0.004306    0.007300    0.048980
H    -0.254993   -2.258813    0.525028    0.027517    0.047658    0.300615
H     2.401547    0.916834   -0.219517    0.053602    0.086043    0.561492
H    -1.805505    1.460126    0.102516   -0.057097   -0.087777   -0.571652
H    -2.476740   -1.809302    0.672136   -0.157539   -0.254183   -1.625166
13
* Frequency(8)  227.8834
C     1.396598    0.538334   -0.032807    0.024782    0.040107    0.262957
C     1.167984   -0.779976    0.159128   -0.001449   -0.001910   -0.011550
N    -0.119033   -1.266490    0.328158   -0.024954   -0.038686   -0.255374
C    -1.175318   -0.448947    0.321402   -0.011656   -0.017319   -0.118108
N    -0.986163    0.848035    0.076431   -0.035392   -0.053400   -0.354065
C     0.285240    1.476912   -0.099402    0.001232    0.002521    0.015653
O    -2.387501   -0.841785    0.569032    0.046400    0.070344    0.467891
O     0.339413    2.673265   -0.286051    0.004881    0.005372    0.034851
H     1.953838   -1.534394    0.206944    0.004306    0.007300    0.048980
H    -0.251866   -2.253397    0.559191    0.027517    0.047658    0.300615
H     2.407638    0.926612   -0.155706    0.053602    0.086043    0.561492
H    -1.811994    1.450151    0.037551   -0.057097   -0.087777   -0.571652
H    -2.494643   -1.838188    0.487444   -0.157539   -0.254183   -1.625166
13
* Frequency(8)  227.8834
C     1.399109    0.542398   -0.006162    0.024782    0.040107    0.262957
C     1.167837   -0.780169    0.157958   -0.001449   -0.001910   -0.011550
N    -0.121561   -1.270410    0.302281   -0.024954   -0.038686   -0.255374
C    -1.176499   -0.450702    0.309434   -0.011656   -0.017319   -0.118108
N    -0.989749    0.842624    0.040554   -0.035392   -0.053400   -0.354065
C     0.285365    1.477168   -0.097816    0.001232    0.002521    0.015653
O    -2.382799   -0.834657    0.616444    0.046400    0.070344    0.467891
O     0.339908    2.673809   -0.282520    0.004881    0.005372    0.034851
H     1.954274   -1.533655    0.211907    0.004306    0.007300    0.048980
H    -0.249078   -2.248568    0.589653    0.027517    0.047658    0.300615
H     2.413070    0.935330   -0.098810    0.053602    0.086043    0.561492
H    -1.817779    1.441257   -0.020375   -0.057097   -0.087777   -0.571652
H    -2.510607   -1.863944    0.322767   -0.157539   -0.254183   -1.625166
13
* Frequency(8)  227.8834
C     1.401043    0.545527    0.014358    0.024782    0.040107    0.262957
C     1.167724   -0.780318    0.157057   -0.001449   -0.001910   -0.011550
N    -0.123508   -1.273429    0.282353   -0.024954   -0.038686   -0.255374
C    -1.177408   -0.452054    0.300217   -0.011656   -0.017319   -0.118108
N    -0.992511    0.838457    0.012925   -0.035392   -0.053400   -0.354065
C     0.285461    1.477364   -0.096595    0.001232    0.002521    0.015653
O    -2.379179   -0.829168    0.652955    0.046400    0.070344    0.467891
O     0.340288    2.674228   -0.279800    0.004881    0.005372    0.034851
H     1.954610   -1.533085    0.215729    0.004306    0.007300    0.048980
H    -0.246930   -2.244849    0.613111    0.027517    0.047658    0.300615
H     2.417252    0.942045   -0.054995    0.053602    0.086043    0.561492
H    -1.822235    1.434407   -0.064983   -0.057097   -0.087777   -0.571652
H    -2.522900   -1.883779    0.195949   -0.157539   -0.254183   -1.625166
13
* Frequency(8)  227.8834
C     1.402190    0.547384    0.026528    0.024782    0.040107    0.262957
C     1.167657   -0.780407    0.156522   -0.001449   -0.001910   -0.011550
N    -0.124663   -1.275220    0.270534   -0.024954   -0.038686   -0.255374
C    -1.177948   -0.452855    0.294751   -0.011656   -0.017319   -0.118108
N    -0.994149    0.835986   -0.003462   -0.035392   -0.053400   -0.354065
C     0.285518    1.477481   -0.095870    0.001232    0.002521    0.015653
O    -2.377031   -0.825912    0.674610    0.046400    0.070344    0.467891
O     0.340514    2.674477   -0.278188    0.004881    0.005372    0.034851
H     1.954809   -1.532747    0.217996    0.004306    0.007300    0.048980
H    -0.245657   -2.242643    0.627024    0.027517    0.047658    0.300615
H     2.419733    0.946027   -0.029008    0.053602    0.086043    0.561492
H    -1.824877    1.430345   -0.091440   -0.057097   -0.087777   -0.571652
H    -2.530191   -1.895543    0.120733   -0.157539   -0.254183   -1.625166
13
* Frequency(8)  227.8834
C     1.402426    0.547765    0.029030    0.024782    0.040107    0.262957
C     1.167643   -0.780425    0.156412   -0.001449   -0.001910   -0.011550
N    -0.124901   -1.275588    0.268104   -0.024954   -0.038686   -0.255374
C    -1.178059   -0.453020    0.293627   -0.011656   -0.017319   -0.118108
N    -0.994486    0.835478   -0.006830   -0.035392   -0.053400   -0.354065
C     0.285530    1.477505   -0.095721    0.001232    0.002521    0.015653
O    -2.376590   -0.825243    0.679062    0.046400    0.070344    0.467891
O     0.340561    2.674528   -0.277856    0.004881    0.005372    0.034851
H     1.954850   -1.532678    0.218462    0.004306    0.007300    0.048980
H    -0.245395   -2.242190    0.629884    0.027517    0.047658    0.300615
H     2.420243    0.946846   -0.023665    0.053602    0.086043    0.561492
H    -1.825420    1.429509   -0.096879   -0.057097   -0.087777   -0.571652
H    -2.531690   -1.897962    0.105271   -0.157539   -0.254183   -1.625166
13
* Frequency(8)  227.8834
C     1.401725    0.546631    0.021593    0.024782    0.040107    0.262957
C     1.167684   -0.780371    0.156739   -0.001449   -0.001910   -0.011550
N    -0.124195   -1.274494    0.275327   -0.024954   -0.038686   -0.255374
C    -1.177729   -0.452530    0.296968   -0.011656   -0.017319   -0.118108
N    -0.993485    0.836988    0.003184   -0.035392   -0.053400   -0.354065
C     0.285495    1.477434   -0.096164    0.001232    0.002521    0.015653
O    -2.377902   -0.827233    0.665828    0.046400    0.070344    0.467891
O     0.340423    2.674376   -0.278842    0.004881    0.005372    0.034851
H     1.954728   -1.532884    0.217077    0.004306    0.007300    0.048980
H    -0.246173   -2.243538    0.621381    0.027517    0.047658    0.300615
H     2.418727    0.944412   -0.039547    0.053602    0.086043    0.561492
H    -1.823806    1.431992   -0.080711   -0.057097   -0.087777   -0.571652
H    -2.527234   -1.890772    0.151237   -0.157539   -0.254183   -1.625166
13
* Frequency(8)  227.8834
C     1.400163    0.544103    0.005022    0.024782    0.040107    0.262957
C     1.167775   -0.780250    0.157467   -0.001449   -0.001910   -0.011550
N    -0.122622   -1.272056    0.291420   -0.024954   -0.038686   -0.255374
C    -1.176994   -0.451439    0.304411   -0.011656   -0.017319   -0.118108
N    -0.991254    0.840353    0.025496   -0.035392   -0.053400   -0.354065
C     0.285417    1.477275   -0.097151    0.001232    0.002521    0.015653
O    -2.380826   -0.831665    0.636343    0.046400    0.070344    0.467891
O     0.340115    2.674038   -0.281038    0.004881    0.005372    0.034851
H     1.954457   -1.533344    0.213990    0.004306    0.007300    0.048980
H    -0.247907   -2.246541    0.602437    0.027517    0.047658    0.300615
H     2.415349    0.938990   -0.074930    0.053602    0.086043    0.561492
H    -1.820207    1.437524   -0.044687   -0.057097   -0.087777   -0.571652
H    -2.517307   -1.874755    0.253650   -0.157539   -0.254183   -1.625166
13
* Frequency(8)  227.8834
C     1.397910    0.540457   -0.018887    0.024782    0.040107    0.262957
C     1.167907   -0.780077    0.158517   -0.001449   -0.001910   -0.011550
N    -0.120354   -1.268538    0.314639   -0.024954   -0.038686   -0.255374
C    -1.175935   -0.449864    0.315149   -0.011656   -0.017319   -0.118108
N    -0.988037    0.845208    0.057688   -0.035392   -0.053400   -0.354065
C     0.285305    1.477046   -0.098574    0.001232    0.002521    0.015653
O    -2.385045   -0.838061    0.593801    0.046400    0.070344    0.467891
O     0.339671    2.673549   -0.284207    0.004881    0.005372    0.034851
H     1.954066   -1.534008    0.209537    0.004306    0.007300    0.048980
H    -0.250409   -2.250874    0.575105    0.027517    0.047658    0.300615
H     2.410476    0.931167   -0.125982    0.053602    0.086043    0.561492
H    -1.815016    1.445504    0.007289   -0.057097   -0.087777   -0.571652
H    -2.502983   -1.851644    0.401413   -0.157539   -0.254183   -1.625166
13
* Frequency(8)  227.8834
C     1.395209    0.536086   -0.047542    0.024782    0.040107    0.262957
C     1.168065   -0.779869    0.159776   -0.001449   -0.001910   -0.011550
N    -0.117634   -1.264323    0.342468   -0.024954   -0.038686   -0.255374
C    -1.174664   -0.447977    0.328020   -0.011656   -0.017319   -0.118108
N    -0.984180    0.851027    0.096272   -0.035392   -0.053400   -0.354065
C     0.285171    1.476771   -0.100280    0.001232    0.002521    0.015653
O    -2.390101   -0.845727    0.542813    0.046400    0.070344    0.467891
O     0.339139    2.672964   -0.288004    0.004881    0.005372    0.034851
H     1.953596   -1.534803    0.204199    0.004306    0.007300    0.048980
H    -0.253408   -2.256068    0.542346    0.027517    0.047658    0.300615
H     2.404634    0.921790   -0.187170    0.053602    0.086043    0.561492
H    -1.808794    1.455070    0.069584   -0.057097   -0.087777   -0.571652
H    -2.485815   -1.823945    0.578513   -0.157539   -0.254183   -1.625166
13
* Frequency(8)  227.8834
C     1.392354    0.531465   -0.077839    0.024782    0.040107    0.262957
C     1.168232   -0.779648    0.161106   -0.001449   -0.001910   -0.011550
N    -0.114759   -1.259865    0.371891   -0.024954   -0.038686   -0.255374
C    -1.173321   -0.445981    0.341628   -0.011656   -0.017319   -0.118108
N    -0.980102    0.857180    0.137066   -0.035392   -0.053400   -0.354065
C     0.285029    1.476480   -0.102083    0.001232    0.002521    0.015653
O    -2.395447   -0.853832    0.488905    0.046400    0.070344    0.467891
O     0.338577    2.672345   -0.292020    0.004881    0.005372    0.034851
H     1.953100   -1.535644    0.198556    0.004306    0.007300    0.048980
H    -0.256578   -2.261559    0.507710    0.027517    0.047658    0.300615
H     2.398459    0.911877   -0.251863    0.053602    0.086043    0.561492
H    -1.802216    1.465183    0.135448   -0.057097   -0.087777   -0.571652
H    -2.467664   -1.794659    0.765759   -0.157539   -0.254183   -1.625166
13
* Frequency(8)  227.8834
C     1.389653    0.527095   -0.106494    0.024782    0.040107    0.262957
C     1.168390   -0.779440    0.162365   -0.001449   -0.001910   -0.011550
N    -0.112040   -1.255650    0.399720   -0.024954   -0.038686   -0.255374
C    -1.172051   -0.444094    0.354499   -0.011656   -0.017319   -0.118108
N    -0.976245    0.862999    0.175650   -0.035392   -0.053400   -0.354065
C     0.284895    1.476206   -0.103789    0.001232    0.002521    0.015653
O    -2.400504   -0.861497    0.437917    0.046400    0.070344    0.467891
O     0.338045    2.671760   -0.295817    0.004881    0.005372    0.034851
H     1.952631   -1.536440    0.193219    0.004306    0.007300    0.048980
H    -0.259577   -2.266752    0.474951    0.027517    0.047658    0.300615
H     2.392617    0.902500   -0.313051    0.053602    0.086043    0.561492
H    -1.795994    1.474748    0.197742   -0.057097   -0.087777   -0.571652
H    -2.450497   -1.766959    0.942859   -0.157539   -0.254183   -1.625166
13
* Frequency(8)  227.8834
C     1.387400    0.523448   -0.130403    0.024782    0.040107    0.262957
C     1.168521   -0.779267    0.163415   -0.001449   -0.001910   -0.011550
N    -0.109771   -1.252132    0.422939   -0.024954   -0.038686   -0.255374
C    -1.170991   -0.442519    0.365237   -0.011656   -0.017319   -0.118108
N    -0.973027    0.867854    0.207842   -0.035392   -0.053400   -0.354065
C     0.284783    1.475977   -0.105212    0.001232    0.002521    0.015653
O    -2.404723   -0.867893    0.395375    0.046400    0.070344    0.467891
O     0.337601    2.671271   -0.298986    0.004881    0.005372    0.034851
H     1.952239   -1.537104    0.188765    0.004306    0.007300    0.048980
H    -0.262079   -2.271086    0.447619    0.027517    0.047658    0.300615
H     2.387744    0.894677   -0.364103    0.053602    0.086043    0.561492
H    -1.790802    1.482729    0.249718   -0.057097   -0.087777   -0.571652
H    -2.436173   -1.743849    1.090622   -0.157539   -0.254183   -1.625166
13
* Frequency(8)  227.8834
C     1.385838    0.520921   -0.146974    0.024782    0.040107    0.262957
C     1.168613   -0.779146    0.164143   -0.001449   -0.001910   -0.011550
N    -0.108199   -1.249694    0.439032   -0.024954   -0.038686   -0.255374
C    -1.170257   -0.441428    0.372680   -0.011656   -0.017319   -0.118108
N    -0.970797    0.871219    0.230154   -0.035392   -0.053400   -0.354065
C     0.284705    1.475818   -0.106199    0.001232    0.002521    0.015653
O    -2.407647   -0.872326    0.365890    0.046400    0.070344    0.467891
O     0.337294    2.670933   -0.301182    0.004881    0.005372    0.034851
H     1.951968   -1.537564    0.185679    0.004306    0.007300    0.048980
H    -0.263813   -2.274089    0.428675    0.027517    0.047658    0.300615
H     2.384366    0.889255   -0.399486    0.053602    0.086043    0.561492
H    -1.787204    1.488261    0.285742   -0.057097   -0.087777   -0.571652
H    -2.426245   -1.727831    1.193035   -0.157539   -0.254183   -1.625166
13
* Frequency(8)  227.8834
C     1.385137    0.519786   -0.154411    0.024782    0.040107    0.262957
C     1.168654   -0.779092    0.164470   -0.001449   -0.001910   -0.011550
N    -0.107493   -1.248600    0.446255   -0.024954   -0.038686   -0.255374
C    -1.169927   -0.440938    0.376021   -0.011656   -0.017319   -0.118108
N    -0.969796    0.872730    0.240168   -0.035392   -0.053400   -0.354065
C     0.284670    1.475746   -0.106641    0.001232    0.002521    0.015653
O    -2.408959   -0.874316    0.352656    0.046400    0.070344    0.467891
O     0.337156    2.670781   -0.302168    0.004881    0.005372    0.034851
H     1.951846   -1.537770    0.184293    0.004306    0.007300    0.048980
H    -0.264591   -2.275437    0.420172    0.027517    0.047658    0.300615
H     2.382850    0.886821   -0.415368    0.053602    0.086043    0.561492
H    -1.785589    1.490743    0.301911   -0.057097   -0.087777   -0.571652
H    -2.421790   -1.720641    1.239001   -0.157539   -0.254183   -1.625166
13
* Frequency(8)  227.8834
C     1.385373    0.520168   -0.151909    0.024782    0.040107    0.262957
C     1.168640   -0.779110    0.164360   -0.001449   -0.001910   -0.011550
N    -0.107730   -1.248968    0.443825   -0.024954   -0.038686   -0.255374
C    -1.170038   -0.441103    0.374897   -0.011656   -0.017319   -0.118108
N    -0.970133    0.872222    0.236799   -0.035392   -0.053400   -0.354065
C     0.284682    1.475770   -0.106492    0.001232    0.002521    0.015653
O    -2.408517   -0.873646    0.357108    0.046400    0.070344    0.467891
O     0.337202    2.670832   -0.301836    0.004881    0.005372    0.034851
H     1.951887   -1.537701    0.184759    0.004306    0.007300    0.048980
H    -0.264330   -2.274983    0.423032    0.027517    0.047658    0.300615
H     2.383360    0.887640   -0.410025    0.053602    0.086043    0.561492
H    -1.786133    1.489908    0.296472   -0.057097   -0.087777   -0.571652
H    -2.423288   -1.723060    1.223539   -0.157539   -0.254183   -1.625166
13
* Frequency(8)  227.8834
C     1.386520    0.522024   -0.139739    0.024782    0.040107    0.262957
C     1.168573   -0.779199    0.163825   -0.001449   -0.001910   -0.011550
N    -0.108885   -1.250759    0.432006   -0.024954   -0.038686   -0.255374
C    -1.170577   -0.441904    0.369431   -0.011656   -0.017319   -0.118108
N    -0.971771    0.869750    0.220413   -0.035392   -0.053400   -0.354065
C     0.284739    1.475887   -0.105768    0.001232    0.002521    0.015653
O    -2.406370   -0.870391    0.378763    0.046400    0.070344    0.467891
O     0.337428    2.671081   -0.300224    0.004881    0.005372    0.034851
H     1.952087   -1.537363    0.187026    0.004306    0.007300    0.048980
H    -0.263056   -2.272778    0.436945    0.027517    0.047658    0.300615
H     2.385841    0.891622   -0.384038    0.053602    0.086043    0.561492
H    -1.788775    1.485846    0.270015   -0.057097   -0.087777   -0.571652
H    -2.430580   -1.734824    1.148323   -0.157539   -0.254183   -1.625166
13
* Frequency(8)  227.8834
C     1.388454    0.525154   -0.119219    0.024782    0.040107    0.262957
C     1.168460   -0.779348    0.162924   -0.001449   -0.001910   -0.011550
N    -0.110832   -1.253777    0.412078   -0.024954   -0.038686   -0.255374
C    -1.171487   -0.443256    0.360214   -0.011656   -0.017319   -0.118108
N    -0.974533    0.865583    0.192784   -0.035392   -0.053400   -0.354065
C     0.284835    1.476084   -0.104546    0.001232    0.002521    0.015653
O    -2.402749   -0.864902    0.415274    0.046400    0.070344    0.467891
O     0.337809    2.671500   -0.297504    0.004881    0.005372    0.034851
H     1.952423   -1.536793    0.190848    0.004306    0.007300    0.048980
H    -0.260909   -2.269059    0.460404    0.027517    0.047658    0.300615
H     2.390023    0.898337   -0.340223    0.053602    0.086043    0.561492
H    -1.793231    1.478996    0.225406   -0.057097   -0.087777   -0.571652
H    -2.442873   -1.754659    1.021505   -0.157539   -0.254183   -1.625166
13
* Frequency(8)  227.8834
C     1.390965    0.529218   -0.092574    0.024782    0.040107    0.262957
C     1.168313   -0.779541    0.161754   -0.001449   -0.001910   -0.011550
N    -0.113361   -1.257697    0.386201   -0.024954   -0.038686   -0.255374
C    -1.172668   -0.445011    0.348247   -0.011656   -0.017319   -0.118108
N    -0.978119    0.860172    0.156906   -0.035392   -0.053400   -0.354065
C     0.284960    1.476339   -0.102960    0.001232    0.002521    0.015653
O    -2.398047   -0.857774    0.462686    0.046400    0.070344    0.467891
O     0.338303    2.672044   -0.293973    0.004881    0.005372    0.034851
H     1.952859   -1.536053    0.195811    0.004306    0.007300    0.048980
H    -0.258120   -2.264229    0.490865    0.027517    0.047658    0.300615
H     2.395455    0.907055   -0.283327    0.053602    0.086043    0.561492
H    -1.799016    1.470102    0.167481   -0.057097   -0.087777   -0.571652
H    -2.458836   -1.780415    0.856828   -0.157539   -0.254183   -1.625166
13
* Frequency(8)  227.8834
C     1.393781    0.533776   -0.062691    0.024782    0.040107    0.262957
C     1.168148   -0.779758    0.160441   -0.001449   -0.001910   -0.011550
N    -0.116197   -1.262094    0.357179   -0.024954   -0.038686   -0.255374
C    -1.173993   -0.446979    0.334824   -0.011656   -0.017319   -0.118108
N    -0.982141    0.854104    0.116669   -0.035392   -0.053400   -0.354065
C     0.285100    1.476626   -0.101181    0.001232    0.002521    0.015653
O    -2.392774   -0.849779    0.515859    0.046400    0.070344    0.467891
O     0.338858    2.672655   -0.290012    0.004881    0.005372    0.034851
H     1.953348   -1.535224    0.201378    0.004306    0.007300    0.048980
H    -0.254993   -2.258813    0.525028    0.027517    0.047658    0.300615
H     2.401547    0.916834   -0.219517    0.053602    0.086043    0.561492
H    -1.805505    1.460126    0.102516   -0.057097   -0.087777   -0.571652
H    -2.476740   -1.809302    0.672136   -0.157539   -0.254183   -1.625166
