12
Coordinates from ORCA-job Uracil_0 E -414.295905846471
  C       1.324730      0.495160     -0.070940
  C       1.138940     -0.837420      0.034180
  N      -0.149430     -1.388020      0.108550
  C      -1.307300     -0.554680      0.075070
  N      -1.121180      0.846280     -0.035250
  C       0.189280      1.421250     -0.111920
  O      -2.423220     -1.055480      0.141140
  O       0.239830      2.636540     -0.204920
  H       1.974690     -1.549090      0.066500
  H      -0.263970     -2.373230      0.185460
  H      -1.931360      1.430000     -0.058700
  H       2.328990      0.928690     -0.129200
12
Coordinates from ORCA-job Uracil_0 E -414.304153145069
  C       1.320625      0.506790     -0.071869
  C       1.120377     -0.823641      0.033333
  N      -0.153103     -1.357926      0.105904
  C      -1.304931     -0.564478      0.075499
  N      -1.084718      0.804395     -0.033108
  C       0.190741      1.426773     -0.112520
  O      -2.412344     -1.058525      0.141235
  O       0.255497      2.638304     -0.205044
  H       1.942897     -1.541781      0.066903
  H      -0.282863     -2.360357      0.185579
  H      -1.911738      1.394094     -0.056487
  H       2.319559      0.936353     -0.129455
12
Coordinates from ORCA-job Uracil_0 E -414.305501053410
  C       1.322959      0.514078     -0.072483
  C       1.112986     -0.817675      0.032939
  N      -0.153394     -1.343979      0.104351
  C      -1.311268     -0.573780      0.076420
  N      -1.062498      0.780383     -0.031826
  C       0.188909      1.432829     -0.112600
  O      -2.419342     -1.061125      0.141489
  O       0.253994      2.641787     -0.205192
  H       1.929962     -1.541763      0.067198
  H      -0.294856     -2.345032      0.185289
  H      -1.889592      1.372206     -0.055554
  H       2.322139      0.942070     -0.130062
12
Coordinates from ORCA-job Uracil_0 E -414.305574028582
  C       1.325397      0.514966     -0.072717
  C       1.114124     -0.817583      0.032765
  N      -0.152196     -1.345685      0.103962
  C      -1.314555     -0.576217      0.076222
  N      -1.060956      0.779739     -0.032136
  C       0.188136      1.435054     -0.113323
  O      -2.423083     -1.061900      0.142194
  O       0.249866      2.643814     -0.204662
  H       1.931112     -1.541995      0.067371
  H      -0.296627     -2.346581      0.185862
  H      -1.886539      1.374536     -0.055682
  H       2.325320      0.941851     -0.129885
12
Coordinates from ORCA-job Uracil_0 E -414.305588749605
  C       1.326724      0.515382     -0.072444
  C       1.114572     -0.817160      0.032791
  N      -0.151396     -1.346915      0.104052
  C      -1.315846     -0.577414      0.077215
  N      -1.060596      0.779561     -0.031799
  C       0.187694      1.436045     -0.111865
  O      -2.423923     -1.062400      0.141518
  O       0.246177      2.644492     -0.205557
  H       1.931665     -1.541707      0.066710
  H      -0.298167     -2.347246      0.186023
  H      -1.884285      1.376671     -0.056496
  H       2.327380      0.940691     -0.130178
12
Coordinates from ORCA-job Uracil_0 E -414.305589240445
  C       1.327000      0.515544     -0.072999
  C       1.114516     -0.816804      0.032460
  N      -0.151092     -1.347343      0.103229
  C      -1.316021     -0.577908      0.075620
  N      -1.060696      0.779283     -0.032791
  C       0.187530      1.435896     -0.114714
  O      -2.423657     -1.062674      0.143357
  O       0.244697      2.644736     -0.203462
  H       1.931756     -1.541203      0.067634
  H      -0.298936     -2.347316      0.186599
  H      -1.883233      1.377884     -0.055730
  H       2.328135      0.939904     -0.129232
12
Coordinates from ORCA-job Uracil_0 E -414.305591581451
  C       1.326818      0.515625     -0.072695
  C       1.114377     -0.816688      0.032593
  N      -0.151094     -1.347186      0.103529
  C      -1.315757     -0.577742      0.076356
  N      -1.060818      0.779212     -0.032332
  C       0.187656      1.435836     -0.113066
  O      -2.423405     -1.062950      0.142522
  O       0.244775      2.644537     -0.204549
  H       1.931652     -1.541066      0.067068
  H      -0.299009     -2.347231      0.186443
  H      -1.883217      1.377996     -0.056239
  H       2.328020      0.939659     -0.129660
12
Coordinates from ORCA-job Uracil_0 E -414.305591823261
  C       1.326706      0.515754     -0.072626
  C       1.114284     -0.816584      0.032594
  N      -0.151041     -1.347120      0.103530
  C      -1.315628     -0.577682      0.076752
  N      -1.060936      0.779065     -0.032267
  C       0.187706      1.435734     -0.112929
  O      -2.423226     -1.063291      0.142349
  O       0.244598      2.644464     -0.204665
  H       1.931646     -1.540867      0.066907
  H      -0.299216     -2.347153      0.186398
  H      -1.882973      1.378347     -0.056429
  H       2.328081      0.939334     -0.129643
