12
* (null), Energy   -1000.0000000
C     1.326706    0.515754   -0.072626   -0.204304   -0.169679    0.017545
C     1.114284   -0.816584    0.032594   -0.151820    0.074212   -0.001271
N    -0.151041   -1.347120    0.103530    0.282381    0.153774   -0.018788
C    -1.315628   -0.577682    0.076752   -0.033484    0.017309   -0.000730
N    -1.060936    0.779065   -0.032267   -0.095317   -0.020450    0.004017
C     0.187706    1.435734   -0.112929    0.137529    0.004527   -0.003786
O    -2.423226   -1.063291    0.142349   -0.040715    0.025420   -0.000739
O     0.244598    2.644464   -0.204665   -0.020299   -0.022224    0.002162
H     1.931646   -1.540867    0.066907    0.180559    0.476420   -0.042747
H    -0.299216   -2.347153    0.186398    0.905984    0.081751   -0.028148
H    -1.882973    1.378347   -0.056429   -0.081375    0.003240    0.001773
H     2.328081    0.939334   -0.129643    0.367510   -1.587419    0.111684
12
* Frequency(22) 1085.8349
C     1.303488    0.496470   -0.070632   -0.204304   -0.169679    0.017545
C     1.097030   -0.808150    0.032450   -0.151820    0.074212   -0.001271
N    -0.118950   -1.329644    0.101395    0.282381    0.153774   -0.018788
C    -1.319433   -0.575715    0.076669   -0.033484    0.017309   -0.000730
N    -1.071768    0.776741   -0.031811   -0.095317   -0.020450    0.004017
C     0.203336    1.436248   -0.113360    0.137529    0.004527   -0.003786
O    -2.427853   -1.060402    0.142265   -0.040715    0.025420   -0.000739
O     0.242291    2.641939   -0.204419   -0.020299   -0.022224    0.002162
H     1.952166   -1.486725    0.062049    0.180559    0.476420   -0.042747
H    -0.196256   -2.337863    0.183199    0.905984    0.081751   -0.028148
H    -1.892221    1.378715   -0.056227   -0.081375    0.003240    0.001773
H     2.369846    0.758932   -0.116951    0.367510   -1.587419    0.111684
12
* Frequency(22) 1085.8349
C     1.282786    0.479277   -0.068854   -0.204304   -0.169679    0.017545
C     1.081646   -0.800630    0.032321   -0.151820    0.074212   -0.001271
N    -0.090337   -1.314062    0.099491    0.282381    0.153774   -0.018788
C    -1.322826   -0.573961    0.076595   -0.033484    0.017309   -0.000730
N    -1.081426    0.774668   -0.031404   -0.095317   -0.020450    0.004017
C     0.217271    1.436707   -0.113743    0.137529    0.004527   -0.003786
O    -2.431979   -1.057826    0.142190   -0.040715    0.025420   -0.000739
O     0.240234    2.639687   -0.204200   -0.020299   -0.022224    0.002162
H     1.970462   -1.438449    0.057718    0.180559    0.476420   -0.042747
H    -0.104453   -2.329579    0.180347    0.905984    0.081751   -0.028148
H    -1.900467    1.379043   -0.056048   -0.081375    0.003240    0.001773
H     2.407086    0.598079   -0.105634    0.367510   -1.587419    0.111684
12
* Frequency(22) 1085.8349
C     1.266843    0.466036   -0.067485   -0.204304   -0.169679    0.017545
C     1.069799   -0.794839    0.032222   -0.151820    0.074212   -0.001271
N    -0.068301   -1.302063    0.098025    0.282381    0.153774   -0.018788
C    -1.325439   -0.572610    0.076538   -0.033484    0.017309   -0.000730
N    -1.088864    0.773072   -0.031090   -0.095317   -0.020450    0.004017
C     0.228003    1.437060   -0.114039    0.137529    0.004527   -0.003786
O    -2.435156   -1.055842    0.142132   -0.040715    0.025420   -0.000739
O     0.238650    2.637952   -0.204031   -0.020299   -0.022224    0.002162
H     1.984551   -1.401273    0.054382    0.180559    0.476420   -0.042747
H    -0.033755   -2.323200    0.178150    0.905984    0.081751   -0.028148
H    -1.906817    1.379296   -0.055909   -0.081375    0.003240    0.001773
H     2.435764    0.474207   -0.096919    0.367510   -1.587419    0.111684
12
* Frequency(22) 1085.8349
C     1.257388    0.458183   -0.066673   -0.204304   -0.169679    0.017545
C     1.062773   -0.791404    0.032163   -0.151820    0.074212   -0.001271
N    -0.055232   -1.294946    0.097155    0.282381    0.153774   -0.018788
C    -1.326989   -0.571809    0.076504   -0.033484    0.017309   -0.000730
N    -1.093276    0.772126   -0.030904   -0.095317   -0.020450    0.004017
C     0.234368    1.437270   -0.114214    0.137529    0.004527   -0.003786
O    -2.437040   -1.054666    0.142098   -0.040715    0.025420   -0.000739
O     0.237711    2.636924   -0.203931   -0.020299   -0.022224    0.002162
H     1.992908   -1.379223    0.052404    0.180559    0.476420   -0.042747
H     0.008175   -2.319416    0.176847    0.905984    0.081751   -0.028148
H    -1.910583    1.379446   -0.055827   -0.081375    0.003240    0.001773
H     2.452773    0.400738   -0.091750    0.367510   -1.587419    0.111684
12
* Frequency(22) 1085.8349
C     1.255444    0.456569   -0.066506   -0.204304   -0.169679    0.017545
C     1.061328   -0.790698    0.032151   -0.151820    0.074212   -0.001271
N    -0.052546   -1.293483    0.096976    0.282381    0.153774   -0.018788
C    -1.327308   -0.571644    0.076497   -0.033484    0.017309   -0.000730
N    -1.094183    0.771931   -0.030866   -0.095317   -0.020450    0.004017
C     0.235677    1.437313   -0.114250    0.137529    0.004527   -0.003786
O    -2.437427   -1.054424    0.142091   -0.040715    0.025420   -0.000739
O     0.237518    2.636712   -0.203911   -0.020299   -0.022224    0.002162
H     1.994626   -1.374690    0.051997    0.180559    0.476420   -0.042747
H     0.016795   -2.318638    0.176580    0.905984    0.081751   -0.028148
H    -1.911357    1.379477   -0.055810   -0.081375    0.003240    0.001773
H     2.456270    0.385635   -0.090687    0.367510   -1.587419    0.111684
12
* Frequency(22) 1085.8349
C     1.261222    0.461368   -0.067002   -0.204304   -0.169679    0.017545
C     1.065622   -0.792797    0.032187   -0.151820    0.074212   -0.001271
N    -0.060532   -1.297832    0.097508    0.282381    0.153774   -0.018788
C    -1.326360   -0.572134    0.076518   -0.033484    0.017309   -0.000730
N    -1.091487    0.772510   -0.030980   -0.095317   -0.020450    0.004017
C     0.231787    1.437185   -0.114143    0.137529    0.004527   -0.003786
O    -2.436276   -1.055143    0.142112   -0.040715    0.025420   -0.000739
O     0.238092    2.637341   -0.203972   -0.020299   -0.022224    0.002162
H     1.989519   -1.388165    0.053206    0.180559    0.476420   -0.042747
H    -0.008830   -2.320951    0.177376    0.905984    0.081751   -0.028148
H    -1.909056    1.379385   -0.055860   -0.081375    0.003240    0.001773
H     2.445875    0.430533   -0.093846    0.367510   -1.587419    0.111684
12
* Frequency(22) 1085.8349
C     1.274097    0.472061   -0.068108   -0.204304   -0.169679    0.017545
C     1.075189   -0.797474    0.032267   -0.151820    0.074212   -0.001271
N    -0.078327   -1.307523    0.098692    0.282381    0.153774   -0.018788
C    -1.324250   -0.573225    0.076564   -0.033484    0.017309   -0.000730
N    -1.085480    0.773799   -0.031233   -0.095317   -0.020450    0.004017
C     0.223120    1.436900   -0.113904    0.137529    0.004527   -0.003786
O    -2.433710   -1.056745    0.142158   -0.040715    0.025420   -0.000739
O     0.239371    2.638741   -0.204108   -0.020299   -0.022224    0.002162
H     1.978141   -1.418188    0.055900    0.180559    0.476420   -0.042747
H    -0.065922   -2.326102    0.179150    0.905984    0.081751   -0.028148
H    -1.903928    1.379181   -0.055972   -0.081375    0.003240    0.001773
H     2.422716    0.530568   -0.100884    0.367510   -1.587419    0.111684
12
* Frequency(22) 1085.8349
C     1.292673    0.487488   -0.069703   -0.204304   -0.169679    0.017545
C     1.088993   -0.804221    0.032383   -0.151820    0.074212   -0.001271
N    -0.104002   -1.321504    0.100400    0.282381    0.153774   -0.018788
C    -1.321206   -0.574798    0.076630   -0.033484    0.017309   -0.000730
N    -1.076814    0.775658   -0.031598   -0.095317   -0.020450    0.004017
C     0.210616    1.436488   -0.113560    0.137529    0.004527   -0.003786
O    -2.430008   -1.059056    0.142225   -0.040715    0.025420   -0.000739
O     0.241217    2.640762   -0.204305   -0.020299   -0.022224    0.002162
H     1.961724   -1.461505    0.059786    0.180559    0.476420   -0.042747
H    -0.148296   -2.333535    0.181709    0.905984    0.081751   -0.028148
H    -1.896529    1.378886   -0.056133   -0.081375    0.003240    0.001773
H     2.389301    0.674899   -0.111039    0.367510   -1.587419    0.111684
12
* Frequency(22) 1085.8349
C     1.314936    0.505979   -0.071615   -0.204304   -0.169679    0.017545
C     1.105537   -0.812308    0.032521   -0.151820    0.074212   -0.001271
N    -0.134774   -1.338261    0.102447    0.282381    0.153774   -0.018788
C    -1.317557   -0.576685    0.076710   -0.033484    0.017309   -0.000730
N    -1.066427    0.777886   -0.032036   -0.095317   -0.020450    0.004017
C     0.195629    1.435995   -0.113147    0.137529    0.004527   -0.003786
O    -2.425572   -1.061826    0.142306   -0.040715    0.025420   -0.000739
O     0.243429    2.643184   -0.204540   -0.020299   -0.022224    0.002162
H     1.942048   -1.513422    0.064445    0.180559    0.476420   -0.042747
H    -0.247024   -2.342444    0.184776    0.905984    0.081751   -0.028148
H    -1.887661    1.378533   -0.056327   -0.081375    0.003240    0.001773
H     2.349252    0.847886   -0.123209    0.367510   -1.587419    0.111684
12
* Frequency(22) 1085.8349
C     1.338476    0.525528   -0.073637   -0.204304   -0.169679    0.017545
C     1.123030   -0.820859    0.032668   -0.151820    0.074212   -0.001271
N    -0.167309   -1.355979    0.104612    0.282381    0.153774   -0.018788
C    -1.313699   -0.578679    0.076794   -0.033484    0.017309   -0.000730
N    -1.055445    0.780243   -0.032499   -0.095317   -0.020450    0.004017
C     0.179783    1.435473   -0.112711    0.137529    0.004527   -0.003786
O    -2.420881   -1.064755    0.142391   -0.040715    0.025420   -0.000739
O     0.245768    2.645745   -0.204790   -0.020299   -0.022224    0.002162
H     1.921244   -1.568313    0.069370    0.180559    0.476420   -0.042747
H    -0.351408   -2.351863    0.188019    0.905984    0.081751   -0.028148
H    -1.878285    1.378160   -0.056531   -0.081375    0.003240    0.001773
H     2.306909    1.030782   -0.136077    0.367510   -1.587419    0.111684
12
* Frequency(22) 1085.8349
C     1.360739    0.544019   -0.075548   -0.204304   -0.169679    0.017545
C     1.139574   -0.828946    0.032806   -0.151820    0.074212   -0.001271
N    -0.198081   -1.372736    0.106660    0.282381    0.153774   -0.018788
C    -1.310050   -0.580565    0.076873   -0.033484    0.017309   -0.000730
N    -1.045058    0.782471   -0.032936   -0.095317   -0.020450    0.004017
C     0.164796    1.434980   -0.112299    0.137529    0.004527   -0.003786
O    -2.416444   -1.067525    0.142472   -0.040715    0.025420   -0.000739
O     0.247980    2.648166   -0.205025   -0.020299   -0.022224    0.002162
H     1.901568   -1.620230    0.074028    0.180559    0.476420   -0.042747
H    -0.450137   -2.360771    0.191087    0.905984    0.081751   -0.028148
H    -1.869418    1.377807   -0.056724   -0.081375    0.003240    0.001773
H     2.266860    1.203769   -0.148248    0.367510   -1.587419    0.111684
12
* Frequency(22) 1085.8349
C     1.379315    0.559446   -0.077144   -0.204304   -0.169679    0.017545
C     1.153378   -0.835694    0.032922   -0.151820    0.074212   -0.001271
N    -0.223755   -1.386717    0.108368    0.282381    0.153774   -0.018788
C    -1.307006   -0.582139    0.076940   -0.033484    0.017309   -0.000730
N    -1.036391    0.784331   -0.033301   -0.095317   -0.020450    0.004017
C     0.152292    1.434568   -0.111954    0.137529    0.004527   -0.003786
O    -2.412742   -1.069837    0.142539   -0.040715    0.025420   -0.000739
O     0.249825    2.650187   -0.205222   -0.020299   -0.022224    0.002162
H     1.885151   -1.663547    0.077915    0.180559    0.476420   -0.042747
H    -0.532510   -2.368204    0.193646    0.905984    0.081751   -0.028148
H    -1.862019    1.377513   -0.056885   -0.081375    0.003240    0.001773
H     2.233446    1.348100   -0.158402    0.367510   -1.587419    0.111684
12
* Frequency(22) 1085.8349
C     1.392190    0.570139   -0.078249   -0.204304   -0.169679    0.017545
C     1.162945   -0.840370    0.033002   -0.151820    0.074212   -0.001271
N    -0.241550   -1.396408    0.109552    0.282381    0.153774   -0.018788
C    -1.304896   -0.583230    0.076986   -0.033484    0.017309   -0.000730
N    -1.030385    0.785619   -0.033555   -0.095317   -0.020450    0.004017
C     0.143625    1.434283   -0.111716    0.137529    0.004527   -0.003786
O    -2.410176   -1.071439    0.142585   -0.040715    0.025420   -0.000739
O     0.251104    2.651588   -0.205358   -0.020299   -0.022224    0.002162
H     1.873773   -1.693570    0.080609    0.180559    0.476420   -0.042747
H    -0.589603   -2.373356    0.195420    0.905984    0.081751   -0.028148
H    -1.856891    1.377308   -0.056997   -0.081375    0.003240    0.001773
H     2.210286    1.448134   -0.165440    0.367510   -1.587419    0.111684
12
* Frequency(22) 1085.8349
C     1.397968    0.574938   -0.078745   -0.204304   -0.169679    0.017545
C     1.167239   -0.842469    0.033038   -0.151820    0.074212   -0.001271
N    -0.249537   -1.400757    0.110083    0.282381    0.153774   -0.018788
C    -1.303949   -0.583719    0.077006   -0.033484    0.017309   -0.000730
N    -1.027689    0.786198   -0.033668   -0.095317   -0.020450    0.004017
C     0.139735    1.434155   -0.111609    0.137529    0.004527   -0.003786
O    -2.409025   -1.072158    0.142606   -0.040715    0.025420   -0.000739
O     0.251678    2.652216   -0.205419   -0.020299   -0.022224    0.002162
H     1.868666   -1.707045    0.081818    0.180559    0.476420   -0.042747
H    -0.615228   -2.375668    0.196216    0.905984    0.081751   -0.028148
H    -1.854589    1.377217   -0.057047   -0.081375    0.003240    0.001773
H     2.199892    1.493033   -0.168599    0.367510   -1.587419    0.111684
12
* Frequency(22) 1085.8349
C     1.396024    0.573324   -0.078579   -0.204304   -0.169679    0.017545
C     1.165794   -0.841763    0.033026   -0.151820    0.074212   -0.001271
N    -0.246850   -1.399294    0.109904    0.282381    0.153774   -0.018788
C    -1.304267   -0.583555    0.076999   -0.033484    0.017309   -0.000730
N    -1.028596    0.786003   -0.033630   -0.095317   -0.020450    0.004017
C     0.141044    1.434198   -0.111645    0.137529    0.004527   -0.003786
O    -2.409412   -1.071916    0.142599   -0.040715    0.025420   -0.000739
O     0.251485    2.652005   -0.205399   -0.020299   -0.022224    0.002162
H     1.870384   -1.702512    0.081411    0.180559    0.476420   -0.042747
H    -0.606608   -2.374890    0.195948    0.905984    0.081751   -0.028148
H    -1.855363    1.377248   -0.057030   -0.081375    0.003240    0.001773
H     2.203388    1.477929   -0.167537    0.367510   -1.587419    0.111684
12
* Frequency(22) 1085.8349
C     1.386569    0.565471   -0.077767   -0.204304   -0.169679    0.017545
C     1.158768   -0.838328    0.032967   -0.151820    0.074212   -0.001271
N    -0.233781   -1.392177    0.109035    0.282381    0.153774   -0.018788
C    -1.305817   -0.582754    0.076966   -0.033484    0.017309   -0.000730
N    -1.033007    0.785057   -0.033444   -0.095317   -0.020450    0.004017
C     0.147409    1.434408   -0.111820    0.137529    0.004527   -0.003786
O    -2.411296   -1.070739    0.142565   -0.040715    0.025420   -0.000739
O     0.250546    2.650976   -0.205299   -0.020299   -0.022224    0.002162
H     1.878741   -1.680462    0.079433    0.180559    0.476420   -0.042747
H    -0.564677   -2.371107    0.194645    0.905984    0.081751   -0.028148
H    -1.859130    1.377397   -0.056948   -0.081375    0.003240    0.001773
H     2.220397    1.404461   -0.162368    0.367510   -1.587419    0.111684
12
* Frequency(22) 1085.8349
C     1.370626    0.552230   -0.076397   -0.204304   -0.169679    0.017545
C     1.146921   -0.832537    0.032868   -0.151820    0.074212   -0.001271
N    -0.211746   -1.380178    0.107569    0.282381    0.153774   -0.018788
C    -1.308430   -0.581403    0.076909   -0.033484    0.017309   -0.000730
N    -1.040445    0.783461   -0.033131   -0.095317   -0.020450    0.004017
C     0.158141    1.434761   -0.112115    0.137529    0.004527   -0.003786
O    -2.414473   -1.068756    0.142507   -0.040715    0.025420   -0.000739
O     0.248962    2.649242   -0.205130   -0.020299   -0.022224    0.002162
H     1.892830   -1.643285    0.076097    0.180559    0.476420   -0.042747
H    -0.493980   -2.364728    0.192449    0.905984    0.081751   -0.028148
H    -1.865480    1.377650   -0.056810   -0.081375    0.003240    0.001773
H     2.249076    1.280588   -0.153653    0.367510   -1.587419    0.111684
12
* Frequency(22) 1085.8349
C     1.349924    0.535037   -0.074620   -0.204304   -0.169679    0.017545
C     1.131537   -0.825017    0.032739   -0.151820    0.074212   -0.001271
N    -0.183132   -1.364596    0.105665    0.282381    0.153774   -0.018788
C    -1.311823   -0.579649    0.076835   -0.033484    0.017309   -0.000730
N    -1.050103    0.781389   -0.032724   -0.095317   -0.020450    0.004017
C     0.172077    1.435220   -0.112499    0.137529    0.004527   -0.003786
O    -2.418599   -1.066180    0.142432   -0.040715    0.025420   -0.000739
O     0.246905    2.646990   -0.204911   -0.020299   -0.022224    0.002162
H     1.911126   -1.595010    0.071765    0.180559    0.476420   -0.042747
H    -0.402177   -2.356444    0.189597    0.905984    0.081751   -0.028148
H    -1.873725    1.377979   -0.056630   -0.081375    0.003240    0.001773
H     2.286315    1.119736   -0.142336    0.367510   -1.587419    0.111684
12
* Frequency(22) 1085.8349
C     1.326706    0.515754   -0.072626   -0.204304   -0.169679    0.017545
C     1.114284   -0.816584    0.032594   -0.151820    0.074212   -0.001271
N    -0.151041   -1.347120    0.103530    0.282381    0.153774   -0.018788
C    -1.315628   -0.577682    0.076752   -0.033484    0.017309   -0.000730
N    -1.060936    0.779065   -0.032267   -0.095317   -0.020450    0.004017
C     0.187706    1.435734   -0.112929    0.137529    0.004527   -0.003786
O    -2.423226   -1.063291    0.142349   -0.040715    0.025420   -0.000739
O     0.244598    2.644464   -0.204665   -0.020299   -0.022224    0.002162
H     1.931646   -1.540867    0.066907    0.180559    0.476420   -0.042747
H    -0.299216   -2.347153    0.186398    0.905984    0.081751   -0.028148
H    -1.882973    1.378347   -0.056429   -0.081375    0.003240    0.001773
H     2.328081    0.939334   -0.129643    0.367510   -1.587419    0.111684
