12
* (null), Energy   -1000.0000000
C     1.629965    0.315610   -0.065301    0.069067   -0.007364   -0.001181
C     1.417359   -1.016714    0.040627    0.183508    0.122098   -0.013871
N     0.152106   -1.547217    0.113051   -0.178934    0.027785    0.002507
C    -1.012934   -0.778188    0.084369    0.075965   -0.180720    0.011592
N    -0.757957    0.578797   -0.024165    0.141692    0.095196   -0.010762
C     0.490659    1.235340   -0.105671   -0.368141   -0.005484    0.009779
O    -2.120393   -1.263598    0.148925   -0.024621   -0.017906    0.002000
O     0.547838    2.444022   -0.198224    0.038368   -0.023378    0.000801
H     2.234675   -1.741152    0.074482    0.588867    0.583066   -0.059451
H     0.004476   -2.547394    0.191756   -0.805267    0.109681    0.012255
H    -1.579890    1.178069   -0.048486    0.366493    0.397486   -0.039531
H     2.631499    0.738614   -0.122607    0.621090   -1.292277    0.081675
12
* Frequency(24) 1222.7582
C     1.637814    0.314773   -0.065435    0.069067   -0.007364   -0.001181
C     1.438214   -1.002838    0.039051    0.183508    0.122098   -0.013871
N     0.131771   -1.544059    0.113336   -0.178934    0.027785    0.002507
C    -1.004301   -0.798726    0.085687    0.075965   -0.180720    0.011592
N    -0.741854    0.589615   -0.025388    0.141692    0.095196   -0.010762
C     0.448821    1.234717   -0.104560   -0.368141   -0.005484    0.009779
O    -2.123191   -1.265633    0.149152   -0.024621   -0.017906    0.002000
O     0.552199    2.441365   -0.198133    0.038368   -0.023378    0.000801
H     2.301597   -1.674889    0.067725    0.588867    0.583066   -0.059451
H    -0.087038   -2.534930    0.193149   -0.805267    0.109681    0.012255
H    -1.538240    1.223241   -0.052978    0.366493    0.397486   -0.039531
H     2.702083    0.591754   -0.113325    0.621090   -1.292277    0.081675
12
* Frequency(24) 1222.7582
C     1.644813    0.314027   -0.065555    0.069067   -0.007364   -0.001181
C     1.456809   -0.990466    0.037645    0.183508    0.122098   -0.013871
N     0.113640   -1.541244    0.113590   -0.178934    0.027785    0.002507
C    -0.996604   -0.817038    0.086861    0.075965   -0.180720    0.011592
N    -0.727496    0.599262   -0.026478    0.141692    0.095196   -0.010762
C     0.411518    1.234161   -0.103569   -0.368141   -0.005484    0.009779
O    -2.125686   -1.267447    0.149355   -0.024621   -0.017906    0.002000
O     0.556087    2.438996   -0.198051    0.038368   -0.023378    0.000801
H     2.361266   -1.615807    0.061701    0.588867    0.583066   -0.059451
H    -0.168635   -2.523816    0.194390   -0.805267    0.109681    0.012255
H    -1.501103    1.263518   -0.056984    0.366493    0.397486   -0.039531
H     2.765018    0.460808   -0.105049    0.621090   -1.292277    0.081675
12
* Frequency(24) 1222.7582
C     1.650202    0.313452   -0.065647    0.069067   -0.007364   -0.001181
C     1.471128   -0.980939    0.036563    0.183508    0.122098   -0.013871
N     0.099677   -1.539076    0.113786   -0.178934    0.027785    0.002507
C    -0.990676   -0.831140    0.087766    0.075965   -0.180720    0.011592
N    -0.716440    0.606690   -0.027318    0.141692    0.095196   -0.010762
C     0.382790    1.233733   -0.102806   -0.368141   -0.005484    0.009779
O    -2.127607   -1.268845    0.149511   -0.024621   -0.017906    0.002000
O     0.559081    2.437172   -0.197989    0.038368   -0.023378    0.000801
H     2.407218   -1.570309    0.057062    0.588867    0.583066   -0.059451
H    -0.231474   -2.515257    0.195347   -0.805267    0.109681    0.012255
H    -1.472504    1.294535   -0.060068    0.366493    0.397486   -0.039531
H     2.813484    0.359966   -0.098676    0.621090   -1.292277    0.081675
12
* Frequency(24) 1222.7582
C     1.653399    0.313112   -0.065701    0.069067   -0.007364   -0.001181
C     1.479622   -0.975288    0.035921    0.183508    0.122098   -0.013871
N     0.091396   -1.537790    0.113902   -0.178934    0.027785    0.002507
C    -0.987160   -0.839504    0.088303    0.075965   -0.180720    0.011592
N    -0.709882    0.611096   -0.027816    0.141692    0.095196   -0.010762
C     0.365752    1.233479   -0.102353   -0.368141   -0.005484    0.009779
O    -2.128746   -1.269673    0.149603   -0.024621   -0.017906    0.002000
O     0.560856    2.436090   -0.197952    0.038368   -0.023378    0.000801
H     2.434472   -1.543323    0.054310    0.588867    0.583066   -0.059451
H    -0.268743   -2.510180    0.195914   -0.805267    0.109681    0.012255
H    -1.455542    1.312932   -0.061898    0.366493    0.397486   -0.039531
H     2.842229    0.300157   -0.094896    0.621090   -1.292277    0.081675
12
* Frequency(24) 1222.7582
C     1.654056    0.313042   -0.065713    0.069067   -0.007364   -0.001181
C     1.481368   -0.974126    0.035789    0.183508    0.122098   -0.013871
N     0.089693   -1.537525    0.113926   -0.178934    0.027785    0.002507
C    -0.986437   -0.841224    0.088413    0.075965   -0.180720    0.011592
N    -0.708534    0.612002   -0.027919    0.141692    0.095196   -0.010762
C     0.362249    1.233427   -0.102260   -0.368141   -0.005484    0.009779
O    -2.128981   -1.269844    0.149622   -0.024621   -0.017906    0.002000
O     0.561222    2.435868   -0.197944    0.038368   -0.023378    0.000801
H     2.440075   -1.537776    0.053745    0.588867    0.583066   -0.059451
H    -0.276404   -2.509137    0.196030   -0.805267    0.109681    0.012255
H    -1.452055    1.316713   -0.062274    0.366493    0.397486   -0.039531
H     2.848138    0.287862   -0.094119    0.621090   -1.292277    0.081675
12
* Frequency(24) 1222.7582
C     1.652102    0.313250   -0.065679    0.069067   -0.007364   -0.001181
C     1.476177   -0.977579    0.036181    0.183508    0.122098   -0.013871
N     0.094754   -1.538311    0.113855   -0.178934    0.027785    0.002507
C    -0.988586   -0.836112    0.088085    0.075965   -0.180720    0.011592
N    -0.712541    0.609309   -0.027614    0.141692    0.095196   -0.010762
C     0.372662    1.233582   -0.102537   -0.368141   -0.005484    0.009779
O    -2.128284   -1.269337    0.149566   -0.024621   -0.017906    0.002000
O     0.560136    2.436529   -0.197967    0.038368   -0.023378    0.000801
H     2.423419   -1.554267    0.055426    0.588867    0.583066   -0.059451
H    -0.253628   -2.512239    0.195684   -0.805267    0.109681    0.012255
H    -1.462421    1.305471   -0.061156    0.366493    0.397486   -0.039531
H     2.830571    0.324413   -0.096429    0.621090   -1.292277    0.081675
12
* Frequency(24) 1222.7582
C     1.647750    0.313714   -0.065605    0.069067   -0.007364   -0.001181
C     1.464613   -0.985274    0.037055    0.183508    0.122098   -0.013871
N     0.106030   -1.540062    0.113697   -0.178934    0.027785    0.002507
C    -0.993373   -0.824724    0.087354    0.075965   -0.180720    0.011592
N    -0.721470    0.603310   -0.026936    0.141692    0.095196   -0.010762
C     0.395861    1.233928   -0.103153   -0.368141   -0.005484    0.009779
O    -2.126733   -1.268209    0.149440   -0.024621   -0.017906    0.002000
O     0.557718    2.438002   -0.198017    0.038368   -0.023378    0.000801
H     2.386310   -1.591010    0.059173    0.588867    0.583066   -0.059451
H    -0.202883   -2.519151    0.194912   -0.805267    0.109681    0.012255
H    -1.485516    1.280422   -0.058665    0.366493    0.397486   -0.039531
H     2.791432    0.405848   -0.101576    0.621090   -1.292277    0.081675
12
* Frequency(24) 1222.7582
C     1.641470    0.314383   -0.065498    0.069067   -0.007364   -0.001181
C     1.447928   -0.996375    0.038316    0.183508    0.122098   -0.013871
N     0.122299   -1.542588    0.113469   -0.178934    0.027785    0.002507
C    -1.000280   -0.808292    0.086300    0.075965   -0.180720    0.011592
N    -0.734353    0.594655   -0.025957    0.141692    0.095196   -0.010762
C     0.429333    1.234426   -0.104042   -0.368141   -0.005484    0.009779
O    -2.124494   -1.266581    0.149258   -0.024621   -0.017906    0.002000
O     0.554230    2.440128   -0.198090    0.038368   -0.023378    0.000801
H     2.332769   -1.644024    0.064578    0.588867    0.583066   -0.059451
H    -0.129666   -2.529123    0.193797   -0.805267    0.109681    0.012255
H    -1.518839    1.244282   -0.055071    0.366493    0.397486   -0.039531
H     2.734961    0.523345   -0.109002    0.621090   -1.292277    0.081675
12
* Frequency(24) 1222.7582
C     1.633944    0.315186   -0.065369    0.069067   -0.007364   -0.001181
C     1.427931   -1.009680    0.039828    0.183508    0.122098   -0.013871
N     0.141798   -1.545616    0.113196   -0.178934    0.027785    0.002507
C    -1.008558   -0.788599    0.085037    0.075965   -0.180720    0.011592
N    -0.749794    0.584281   -0.024785    0.141692    0.095196   -0.010762
C     0.469451    1.235024   -0.105107   -0.368141   -0.005484    0.009779
O    -2.121811   -1.264629    0.149040   -0.024621   -0.017906    0.002000
O     0.550049    2.442675   -0.198177    0.038368   -0.023378    0.000801
H     2.268598   -1.707562    0.071057    0.588867    0.583066   -0.059451
H    -0.041914   -2.541076    0.192462   -0.805267    0.109681    0.012255
H    -1.558777    1.200967   -0.050763    0.366493    0.397486   -0.039531
H     2.667279    0.664169   -0.117902    0.621090   -1.292277    0.081675
12
* Frequency(24) 1222.7582
C     1.625986    0.316034   -0.065233    0.069067   -0.007364   -0.001181
C     1.406787   -1.023748    0.041426    0.183508    0.122098   -0.013871
N     0.162414   -1.548818    0.112907   -0.178934    0.027785    0.002507
C    -1.017310   -0.767777    0.083702    0.075965   -0.180720    0.011592
N    -0.766119    0.573313   -0.023545    0.141692    0.095196   -0.010762
C     0.511867    1.235656   -0.106234   -0.368141   -0.005484    0.009779
O    -2.118974   -1.262566    0.148810   -0.024621   -0.017906    0.002000
O     0.545628    2.445369   -0.198270    0.038368   -0.023378    0.000801
H     2.200751   -1.774741    0.077906    0.588867    0.583066   -0.059451
H     0.050866   -2.553713    0.191050   -0.805267    0.109681    0.012255
H    -1.601003    1.155170   -0.046208    0.366493    0.397486   -0.039531
H     2.595719    0.813060   -0.127312    0.621090   -1.292277    0.081675
12
* Frequency(24) 1222.7582
C     1.618460    0.316837   -0.065104    0.069067   -0.007364   -0.001181
C     1.386790   -1.037054    0.042938    0.183508    0.122098   -0.013871
N     0.181913   -1.551845    0.112634   -0.178934    0.027785    0.002507
C    -1.025589   -0.748083    0.082438    0.075965   -0.180720    0.011592
N    -0.781560    0.562939   -0.022372    0.141692    0.095196   -0.010762
C     0.551984    1.236253   -0.107300   -0.368141   -0.005484    0.009779
O    -2.116291   -1.260615    0.148592   -0.024621   -0.017906    0.002000
O     0.541447    2.447916   -0.198357    0.038368   -0.023378    0.000801
H     2.136580   -1.838280    0.084385    0.588867    0.583066   -0.059451
H     0.138619   -2.565665    0.189714   -0.805267    0.109681    0.012255
H    -1.640941    1.111855   -0.041900    0.366493    0.397486   -0.039531
H     2.528037    0.953884   -0.136213    0.621090   -1.292277    0.081675
12
* Frequency(24) 1222.7582
C     1.612180    0.317506   -0.064997    0.069067   -0.007364   -0.001181
C     1.370105   -1.048155    0.044199    0.183508    0.122098   -0.013871
N     0.198182   -1.554372    0.112406   -0.178934    0.027785    0.002507
C    -1.032495   -0.731652    0.081384    0.075965   -0.180720    0.011592
N    -0.794443    0.554284   -0.021394    0.141692    0.095196   -0.010762
C     0.585456    1.236752   -0.108189   -0.368141   -0.005484    0.009779
O    -2.114053   -1.258987    0.148410   -0.024621   -0.017906    0.002000
O     0.537958    2.450042   -0.198430    0.038368   -0.023378    0.000801
H     2.083040   -1.891293    0.089790    0.588867    0.583066   -0.059451
H     0.211835   -2.575638    0.188600   -0.805267    0.109681    0.012255
H    -1.674263    1.075715   -0.038306    0.366493    0.397486   -0.039531
H     2.471566    1.071380   -0.143639    0.621090   -1.292277    0.081675
12
* Frequency(24) 1222.7582
C     1.607828    0.317970   -0.064923    0.069067   -0.007364   -0.001181
C     1.358541   -1.055849    0.045073    0.183508    0.122098   -0.013871
N     0.209458   -1.556123    0.112248   -0.178934    0.027785    0.002507
C    -1.037283   -0.720263    0.080654    0.075965   -0.180720    0.011592
N    -0.803372    0.548285   -0.020715    0.141692    0.095196   -0.010762
C     0.608655    1.237098   -0.108805   -0.368141   -0.005484    0.009779
O    -2.112501   -1.257858    0.148284   -0.024621   -0.017906    0.002000
O     0.535541    2.451515   -0.198480    0.038368   -0.023378    0.000801
H     2.045931   -1.928036    0.093537    0.588867    0.583066   -0.059451
H     0.262581   -2.582549    0.187828   -0.805267    0.109681    0.012255
H    -1.697358    1.050666   -0.035815    0.366493    0.397486   -0.039531
H     2.432427    1.152816   -0.148786    0.621090   -1.292277    0.081675
12
* Frequency(24) 1222.7582
C     1.605874    0.318178   -0.064889    0.069067   -0.007364   -0.001181
C     1.353351   -1.059303    0.045465    0.183508    0.122098   -0.013871
N     0.214519   -1.556909    0.112177   -0.178934    0.027785    0.002507
C    -1.039431   -0.715152    0.080326    0.075965   -0.180720    0.011592
N    -0.807380    0.545592   -0.020411    0.141692    0.095196   -0.010762
C     0.619068    1.237253   -0.109082   -0.368141   -0.005484    0.009779
O    -2.111805   -1.257352    0.148227   -0.024621   -0.017906    0.002000
O     0.534455    2.452176   -0.198503    0.038368   -0.023378    0.000801
H     2.029275   -1.944528    0.095218    0.588867    0.583066   -0.059451
H     0.285357   -2.585652    0.187481   -0.805267    0.109681    0.012255
H    -1.707724    1.039424   -0.034697    0.366493    0.397486   -0.039531
H     2.414860    1.189366   -0.151096    0.621090   -1.292277    0.081675
12
* Frequency(24) 1222.7582
C     1.606531    0.318108   -0.064900    0.069067   -0.007364   -0.001181
C     1.355097   -1.058141    0.045333    0.183508    0.122098   -0.013871
N     0.212817   -1.556644    0.112201   -0.178934    0.027785    0.002507
C    -1.038708   -0.716871    0.080436    0.075965   -0.180720    0.011592
N    -0.806031    0.546498   -0.020513    0.141692    0.095196   -0.010762
C     0.615565    1.237200   -0.108989   -0.368141   -0.005484    0.009779
O    -2.112039   -1.257522    0.148246   -0.024621   -0.017906    0.002000
O     0.534820    2.451954   -0.198495    0.038368   -0.023378    0.000801
H     2.034878   -1.938980    0.094653    0.588867    0.583066   -0.059451
H     0.277696   -2.584608    0.187598   -0.805267    0.109681    0.012255
H    -1.704237    1.043206   -0.035073    0.366493    0.397486   -0.039531
H     2.420769    1.177071   -0.150319    0.621090   -1.292277    0.081675
12
* Frequency(24) 1222.7582
C     1.609728    0.317768   -0.064955    0.069067   -0.007364   -0.001181
C     1.363590   -1.052490    0.044691    0.183508    0.122098   -0.013871
N     0.204535   -1.555358    0.112317   -0.178934    0.027785    0.002507
C    -1.035193   -0.725235    0.080973    0.075965   -0.180720    0.011592
N    -0.799474    0.550904   -0.021011    0.141692    0.095196   -0.010762
C     0.598527    1.236947   -0.108536   -0.368141   -0.005484    0.009779
O    -2.113178   -1.258351    0.148339   -0.024621   -0.017906    0.002000
O     0.536596    2.450872   -0.198458    0.038368   -0.023378    0.000801
H     2.062132   -1.911995    0.091901    0.588867    0.583066   -0.059451
H     0.240426   -2.579532    0.188165   -0.805267    0.109681    0.012255
H    -1.687275    1.061602   -0.036903    0.366493    0.397486   -0.039531
H     2.449515    1.117262   -0.146539    0.621090   -1.292277    0.081675
12
* Frequency(24) 1222.7582
C     1.615117    0.317193   -0.065047    0.069067   -0.007364   -0.001181
C     1.377909   -1.042962    0.043609    0.183508    0.122098   -0.013871
N     0.190572   -1.553190    0.112513   -0.178934    0.027785    0.002507
C    -1.029265   -0.739338    0.081877    0.075965   -0.180720    0.011592
N    -0.788417    0.558332   -0.021851    0.141692    0.095196   -0.010762
C     0.569799    1.236519   -0.107773   -0.368141   -0.005484    0.009779
O    -2.115100   -1.259748    0.148495   -0.024621   -0.017906    0.002000
O     0.539590    2.449048   -0.198396    0.038368   -0.023378    0.000801
H     2.108083   -1.866496    0.087262    0.588867    0.583066   -0.059451
H     0.177588   -2.570973    0.189121   -0.805267    0.109681    0.012255
H    -1.658676    1.092619   -0.039987    0.366493    0.397486   -0.039531
H     2.497981    1.016421   -0.140165    0.621090   -1.292277    0.081675
12
* Frequency(24) 1222.7582
C     1.622116    0.316447   -0.065167    0.069067   -0.007364   -0.001181
C     1.396504   -1.030590    0.042203    0.183508    0.122098   -0.013871
N     0.172441   -1.550375    0.112767   -0.178934    0.027785    0.002507
C    -1.021567   -0.757650    0.083052    0.075965   -0.180720    0.011592
N    -0.774059    0.567978   -0.022942    0.141692    0.095196   -0.010762
C     0.532496    1.235963   -0.106782   -0.368141   -0.005484    0.009779
O    -2.117595   -1.261563    0.148697   -0.024621   -0.017906    0.002000
O     0.543478    2.446679   -0.198315    0.038368   -0.023378    0.000801
H     2.167753   -1.807414    0.081238    0.588867    0.583066   -0.059451
H     0.095991   -2.559859    0.190363   -0.805267    0.109681    0.012255
H    -1.621540    1.132896   -0.043993    0.366493    0.397486   -0.039531
H     2.560915    0.885475   -0.131889    0.621090   -1.292277    0.081675
12
* Frequency(24) 1222.7582
C     1.629965    0.315610   -0.065301    0.069067   -0.007364   -0.001181
C     1.417359   -1.016714    0.040627    0.183508    0.122098   -0.013871
N     0.152106   -1.547217    0.113051   -0.178934    0.027785    0.002507
C    -1.012934   -0.778188    0.084369    0.075965   -0.180720    0.011592
N    -0.757957    0.578797   -0.024165    0.141692    0.095196   -0.010762
C     0.490659    1.235340   -0.105671   -0.368141   -0.005484    0.009779
O    -2.120393   -1.263598    0.148925   -0.024621   -0.017906    0.002000
O     0.547838    2.444022   -0.198224    0.038368   -0.023378    0.000801
H     2.234675   -1.741152    0.074482    0.588867    0.583066   -0.059451
H     0.004476   -2.547394    0.191756   -0.805267    0.109681    0.012255
H    -1.579890    1.178069   -0.048486    0.366493    0.397486   -0.039531
H     2.631499    0.738614   -0.122607    0.621090   -1.292277    0.081675
