12
* (null), Energy   -1000.0000000
C     1.326706    0.515754   -0.072626    0.213391   -0.171358    0.007510
C     1.114284   -0.816584    0.032594   -0.416340   -0.018704    0.011504
N    -0.151041   -1.347120    0.103530    0.535576    0.014290   -0.014776
C    -1.315628   -0.577682    0.076752    0.055762    0.066146   -0.006132
N    -1.060936    0.779065   -0.032267    0.133181    0.064568   -0.008266
C     0.187706    1.435734   -0.112929   -0.244660   -0.019882    0.007643
O    -2.423226   -1.063291    0.142349   -0.197312   -0.065716    0.010168
O     0.244598    2.644464   -0.204665    0.022961    0.034332   -0.003137
H     1.931646   -1.540867    0.066907   -0.056773    0.450585   -0.032746
H    -0.299216   -2.347153    0.186398   -1.618021    0.323115    0.017605
H    -1.882973    1.378347   -0.056429   -0.085772   -0.230211    0.019273
H     2.328081    0.939334   -0.129643   -0.095943    0.572287   -0.040097
12
* Frequency(28) 1506.9295
C     1.350957    0.496280   -0.071772    0.213391   -0.171358    0.007510
C     1.066969   -0.818709    0.033902   -0.416340   -0.018704    0.011504
N    -0.090176   -1.345496    0.101851    0.535576    0.014290   -0.014776
C    -1.309291   -0.570165    0.076055    0.055762    0.066146   -0.006132
N    -1.045800    0.786402   -0.033206    0.133181    0.064568   -0.008266
C     0.159902    1.433475   -0.112061   -0.244660   -0.019882    0.007643
O    -2.445650   -1.070759    0.143504   -0.197312   -0.065716    0.010168
O     0.247208    2.648366   -0.205022    0.022961    0.034332   -0.003137
H     1.925194   -1.489661    0.063186   -0.056773    0.450585   -0.032746
H    -0.483096   -2.310433    0.188398   -1.618021    0.323115    0.017605
H    -1.892721    1.352184   -0.054238   -0.085772   -0.230211    0.019273
H     2.317177    1.004371   -0.134200   -0.095943    0.572287   -0.040097
12
* Frequency(28) 1506.9295
C     1.372580    0.478916   -0.071011    0.213391   -0.171358    0.007510
C     1.024781   -0.820605    0.035067   -0.416340   -0.018704    0.011504
N    -0.035906   -1.344048    0.100353    0.535576    0.014290   -0.014776
C    -1.303641   -0.563462    0.075434    0.055762    0.066146   -0.006132
N    -1.032305    0.792945   -0.034044    0.133181    0.064568   -0.008266
C     0.135110    1.431460   -0.111286   -0.244660   -0.019882    0.007643
O    -2.465643   -1.077418    0.144534   -0.197312   -0.065716    0.010168
O     0.249534    2.651845   -0.205340    0.022961    0.034332   -0.003137
H     1.919441   -1.444003    0.059868   -0.056773    0.450585   -0.032746
H    -0.647050   -2.277692    0.190182   -1.618021    0.323115    0.017605
H    -1.901412    1.328857   -0.052286   -0.085772   -0.230211    0.019273
H     2.307456    1.062361   -0.138263   -0.095943    0.572287   -0.040097
12
* Frequency(28) 1506.9295
C     1.389231    0.465544   -0.070425    0.213391   -0.171358    0.007510
C     0.992292   -0.822064    0.035965   -0.416340   -0.018704    0.011504
N     0.005887   -1.342933    0.099200    0.535576    0.014290   -0.014776
C    -1.299289   -0.558301    0.074955    0.055762    0.066146   -0.006132
N    -1.021912    0.797983   -0.034689    0.133181    0.064568   -0.008266
C     0.116019    1.429909   -0.110690   -0.244660   -0.019882    0.007643
O    -2.481040   -1.082546    0.145328   -0.197312   -0.065716    0.010168
O     0.251326    2.654524   -0.205584    0.022961    0.034332   -0.003137
H     1.915011   -1.408842    0.057312   -0.056773    0.450585   -0.032746
H    -0.773310   -2.252478    0.191556   -1.618021    0.323115    0.017605
H    -1.908105    1.310893   -0.050782   -0.085772   -0.230211    0.019273
H     2.299969    1.107019   -0.141392   -0.095943    0.572287   -0.040097
12
* Frequency(28) 1506.9295
C     1.399108    0.457613   -0.070078    0.213391   -0.171358    0.007510
C     0.973023   -0.822930    0.036497   -0.416340   -0.018704    0.011504
N     0.030674   -1.342271    0.098516    0.535576    0.014290   -0.014776
C    -1.296708   -0.555239    0.074671    0.055762    0.066146   -0.006132
N    -1.015749    0.800972   -0.035072    0.133181    0.064568   -0.008266
C     0.104695    1.428988   -0.110336   -0.244660   -0.019882    0.007643
O    -2.490172   -1.085588    0.145798   -0.197312   -0.065716    0.010168
O     0.252388    2.656113   -0.205730    0.022961    0.034332   -0.003137
H     1.912384   -1.387989    0.055797   -0.056773    0.450585   -0.032746
H    -0.848195   -2.237524    0.192371   -1.618021    0.323115    0.017605
H    -1.912075    1.300238   -0.049890   -0.085772   -0.230211    0.019273
H     2.295528    1.133505   -0.143248   -0.095943    0.572287   -0.040097
12
* Frequency(28) 1506.9295
C     1.401138    0.455983   -0.070006    0.213391   -0.171358    0.007510
C     0.969062   -0.823108    0.036607   -0.416340   -0.018704    0.011504
N     0.035770   -1.342135    0.098376    0.535576    0.014290   -0.014776
C    -1.296178   -0.554610    0.074613    0.055762    0.066146   -0.006132
N    -1.014481    0.801586   -0.035150    0.133181    0.064568   -0.008266
C     0.102367    1.428799   -0.110264   -0.244660   -0.019882    0.007643
O    -2.492049   -1.086213    0.145895   -0.197312   -0.065716    0.010168
O     0.252607    2.656439   -0.205759    0.022961    0.034332   -0.003137
H     1.911843   -1.383701    0.055485   -0.056773    0.450585   -0.032746
H    -0.863590   -2.234449    0.192538   -1.618021    0.323115    0.017605
H    -1.912891    1.298048   -0.049706   -0.085772   -0.230211    0.019273
H     2.294616    1.138950   -0.143629   -0.095943    0.572287   -0.040097
12
* Frequency(28) 1506.9295
C     1.395102    0.460830   -0.070219    0.213391   -0.171358    0.007510
C     0.980838   -0.822579    0.036281   -0.416340   -0.018704    0.011504
N     0.020622   -1.342540    0.098794    0.535576    0.014290   -0.014776
C    -1.297755   -0.556481    0.074786    0.055762    0.066146   -0.006132
N    -1.018248    0.799760   -0.034916    0.133181    0.064568   -0.008266
C     0.109287    1.429362   -0.110480   -0.244660   -0.019882    0.007643
O    -2.486469   -1.084354    0.145608   -0.197312   -0.065716    0.010168
O     0.251958    2.655468   -0.205671    0.022961    0.034332   -0.003137
H     1.913449   -1.396446    0.056411   -0.056773    0.450585   -0.032746
H    -0.817826   -2.243588    0.192040   -1.618021    0.323115    0.017605
H    -1.910465    1.304559   -0.050251   -0.085772   -0.230211    0.019273
H     2.297329    1.122764   -0.142495   -0.095943    0.572287   -0.040097
12
* Frequency(28) 1506.9295
C     1.381655    0.471628   -0.070692    0.213391   -0.171358    0.007510
C     1.007074   -0.821400    0.035556   -0.416340   -0.018704    0.011504
N    -0.013129   -1.343440    0.099725    0.535576    0.014290   -0.014776
C    -1.301269   -0.560649    0.075173    0.055762    0.066146   -0.006132
N    -1.026641    0.795691   -0.034396    0.133181    0.064568   -0.008266
C     0.124705    1.430614   -0.110961   -0.244660   -0.019882    0.007643
O    -2.474035   -1.080213    0.144967   -0.197312   -0.065716    0.010168
O     0.250511    2.653305   -0.205473    0.022961    0.034332   -0.003137
H     1.917027   -1.424840    0.058475   -0.056773    0.450585   -0.032746
H    -0.715862   -2.263950    0.190931   -1.618021    0.323115    0.017605
H    -1.905060    1.319067   -0.051466   -0.085772   -0.230211    0.019273
H     2.303375    1.086700   -0.139969   -0.095943    0.572287   -0.040097
12
* Frequency(28) 1506.9295
C     1.362253    0.487208   -0.071375    0.213391   -0.171358    0.007510
C     1.044929   -0.819699    0.034511   -0.416340   -0.018704    0.011504
N    -0.061824   -1.344739    0.101068    0.535576    0.014290   -0.014776
C    -1.306339   -0.566663    0.075730    0.055762    0.066146   -0.006132
N    -1.038750    0.789820   -0.033644    0.133181    0.064568   -0.008266
C     0.146950    1.432422   -0.111656   -0.244660   -0.019882    0.007643
O    -2.456095   -1.074238    0.144042   -0.197312   -0.065716    0.010168
O     0.248423    2.650183   -0.205188    0.022961    0.034332   -0.003137
H     1.922189   -1.465808    0.061452   -0.056773    0.450585   -0.032746
H    -0.568749   -2.293328    0.189330   -1.618021    0.323115    0.017605
H    -1.897261    1.339998   -0.053218   -0.085772   -0.230211    0.019273
H     2.312099    1.034666   -0.136323   -0.095943    0.572287   -0.040097
12
* Frequency(28) 1506.9295
C     1.338999    0.505882   -0.072193    0.213391   -0.171358    0.007510
C     1.090299   -0.817661    0.033257   -0.416340   -0.018704    0.011504
N    -0.120188   -1.346297    0.102679    0.535576    0.014290   -0.014776
C    -1.312416   -0.573871    0.076399    0.055762    0.066146   -0.006132
N    -1.053263    0.782784   -0.032743    0.133181    0.064568   -0.008266
C     0.173612    1.434589   -0.112489   -0.244660   -0.019882    0.007643
O    -2.434593   -1.067077    0.142934   -0.197312   -0.065716    0.010168
O     0.245921    2.646442   -0.204846    0.022961    0.034332   -0.003137
H     1.928375   -1.514910    0.065021   -0.056773    0.450585   -0.032746
H    -0.392427   -2.328539    0.187412   -1.618021    0.323115    0.017605
H    -1.887914    1.365085   -0.055318   -0.085772   -0.230211    0.019273
H     2.322554    0.972302   -0.131953   -0.095943    0.572287   -0.040097
12
* Frequency(28) 1506.9295
C     1.314413    0.525625   -0.073059    0.213391   -0.171358    0.007510
C     1.138268   -0.815506    0.031932   -0.416340   -0.018704    0.011504
N    -0.181895   -1.347943    0.104381    0.535576    0.014290   -0.014776
C    -1.318840   -0.581492    0.077105    0.055762    0.066146   -0.006132
N    -1.068608    0.775345   -0.031791    0.133181    0.064568   -0.008266
C     0.201800    1.436879   -0.113370   -0.244660   -0.019882    0.007643
O    -2.411859   -1.059505    0.141763   -0.197312   -0.065716    0.010168
O     0.243275    2.642486   -0.204484    0.022961    0.034332   -0.003137
H     1.934917   -1.566825    0.068794   -0.056773    0.450585   -0.032746
H    -0.206005   -2.365767    0.185384   -1.618021    0.323115    0.017605
H    -1.878032    1.391609   -0.057539   -0.085772   -0.230211    0.019273
H     2.333608    0.906366   -0.127333   -0.095943    0.572287   -0.040097
12
* Frequency(28) 1506.9295
C     1.291159    0.544299   -0.073877    0.213391   -0.171358    0.007510
C     1.183638   -0.813468    0.030678   -0.416340   -0.018704    0.011504
N    -0.240258   -1.349501    0.105991    0.535576    0.014290   -0.014776
C    -1.324917   -0.588701    0.077773    0.055762    0.066146   -0.006132
N    -1.083121    0.768309   -0.030890    0.133181    0.064568   -0.008266
C     0.228462    1.439046   -0.114202   -0.244660   -0.019882    0.007643
O    -2.390358   -1.052344    0.140655   -0.197312   -0.065716    0.010168
O     0.240773    2.638745   -0.204142    0.022961    0.034332   -0.003137
H     1.941103   -1.615927    0.072362   -0.056773    0.450585   -0.032746
H    -0.029684   -2.400978    0.183465   -1.618021    0.323115    0.017605
H    -1.868685    1.416696   -0.059639   -0.085772   -0.230211    0.019273
H     2.344063    0.844001   -0.122964   -0.095943    0.572287   -0.040097
12
* Frequency(28) 1506.9295
C     1.271757    0.559879   -0.074560    0.213391   -0.171358    0.007510
C     1.221493   -0.811767    0.029632   -0.416340   -0.018704    0.011504
N    -0.288954   -1.350800    0.107335    0.535576    0.014290   -0.014776
C    -1.329987   -0.594715    0.078331    0.055762    0.066146   -0.006132
N    -1.095230    0.762438   -0.030139    0.133181    0.064568   -0.008266
C     0.250707    1.440854   -0.114897   -0.244660   -0.019882    0.007643
O    -2.372418   -1.046369    0.139730   -0.197312   -0.065716    0.010168
O     0.238686    2.635624   -0.203857    0.022961    0.034332   -0.003137
H     1.946265   -1.656894    0.075340   -0.056773    0.450585   -0.032746
H     0.117430   -2.430357    0.181864   -1.618021    0.323115    0.017605
H    -1.860887    1.437627   -0.061392   -0.085772   -0.230211    0.019273
H     2.352786    0.791968   -0.119318   -0.095943    0.572287   -0.040097
12
* Frequency(28) 1506.9295
C     1.258310    0.570677   -0.075033    0.213391   -0.171358    0.007510
C     1.247729   -0.810589    0.028907   -0.416340   -0.018704    0.011504
N    -0.322704   -1.351700    0.108266    0.535576    0.014290   -0.014776
C    -1.333501   -0.598883    0.078717    0.055762    0.066146   -0.006132
N    -1.103623    0.758369   -0.029618    0.133181    0.064568   -0.008266
C     0.266125    1.442106   -0.115379   -0.244660   -0.019882    0.007643
O    -2.359983   -1.042228    0.139089   -0.197312   -0.065716    0.010168
O     0.237239    2.633460   -0.203660    0.022961    0.034332   -0.003137
H     1.949843   -1.685289    0.077403   -0.056773    0.450585   -0.032746
H     0.219393   -2.450718    0.180755   -1.618021    0.323115    0.017605
H    -1.855481    1.452134   -0.062606   -0.085772   -0.230211    0.019273
H     2.358832    0.755904   -0.116791   -0.095943    0.572287   -0.040097
12
* Frequency(28) 1506.9295
C     1.252274    0.575524   -0.075245    0.213391   -0.171358    0.007510
C     1.259505   -0.810060    0.028582   -0.416340   -0.018704    0.011504
N    -0.337853   -1.352105    0.108684    0.535576    0.014290   -0.014776
C    -1.335078   -0.600754    0.078891    0.055762    0.066146   -0.006132
N    -1.107390    0.756543   -0.029384    0.133181    0.064568   -0.008266
C     0.273045    1.442669   -0.115595   -0.244660   -0.019882    0.007643
O    -2.354403   -1.040369    0.138802   -0.197312   -0.065716    0.010168
O     0.236589    2.632489   -0.203571    0.022961    0.034332   -0.003137
H     1.951449   -1.698033    0.078329   -0.056773    0.450585   -0.032746
H     0.265157   -2.459857    0.180257   -1.618021    0.323115    0.017605
H    -1.853055    1.458646   -0.063151   -0.085772   -0.230211    0.019273
H     2.361546    0.739718   -0.115657   -0.095943    0.572287   -0.040097
12
* Frequency(28) 1506.9295
C     1.254304    0.573894   -0.075174    0.213391   -0.171358    0.007510
C     1.255544   -0.810238    0.028691   -0.416340   -0.018704    0.011504
N    -0.332757   -1.351969    0.108543    0.535576    0.014290   -0.014776
C    -1.334548   -0.600125    0.078833    0.055762    0.066146   -0.006132
N    -1.106123    0.757157   -0.029463    0.133181    0.064568   -0.008266
C     0.270717    1.442480   -0.115522   -0.244660   -0.019882    0.007643
O    -2.356280   -1.040994    0.138899   -0.197312   -0.065716    0.010168
O     0.236808    2.632816   -0.203601    0.022961    0.034332   -0.003137
H     1.950909   -1.693746    0.078018   -0.056773    0.450585   -0.032746
H     0.249762   -2.456783    0.180425   -1.618021    0.323115    0.017605
H    -1.853871    1.456455   -0.062968   -0.085772   -0.230211    0.019273
H     2.360633    0.745163   -0.116039   -0.095943    0.572287   -0.040097
12
* Frequency(28) 1506.9295
C     1.264181    0.565963   -0.074826    0.213391   -0.171358    0.007510
C     1.236275   -0.811103    0.029224   -0.416340   -0.018704    0.011504
N    -0.307969   -1.351307    0.107859    0.535576    0.014290   -0.014776
C    -1.331967   -0.597063    0.078549    0.055762    0.066146   -0.006132
N    -1.099959    0.760146   -0.029845    0.133181    0.064568   -0.008266
C     0.259394    1.441559   -0.115169   -0.244660   -0.019882    0.007643
O    -2.365412   -1.044036    0.139369   -0.197312   -0.065716    0.010168
O     0.237870    2.634405   -0.203746    0.022961    0.034332   -0.003137
H     1.948281   -1.672892    0.076502   -0.056773    0.450585   -0.032746
H     0.174877   -2.441829    0.181239   -1.618021    0.323115    0.017605
H    -1.857841    1.445801   -0.062076   -0.085772   -0.230211    0.019273
H     2.356193    0.771649   -0.117894   -0.095943    0.572287   -0.040097
12
* Frequency(28) 1506.9295
C     1.280832    0.552591   -0.074240    0.213391   -0.171358    0.007510
C     1.203786   -0.812563    0.030121   -0.416340   -0.018704    0.011504
N    -0.266176   -1.350192    0.106706    0.535576    0.014290   -0.014776
C    -1.327616   -0.591902    0.078070    0.055762    0.066146   -0.006132
N    -1.089566    0.765184   -0.030490    0.133181    0.064568   -0.008266
C     0.240302    1.440008   -0.114572   -0.244660   -0.019882    0.007643
O    -2.380809   -1.049164    0.140163   -0.197312   -0.065716    0.010168
O     0.239662    2.637084   -0.203991    0.022961    0.034332   -0.003137
H     1.943851   -1.637732    0.073947   -0.056773    0.450585   -0.032746
H     0.048617   -2.416615    0.182613   -1.618021    0.323115    0.017605
H    -1.864534    1.427836   -0.060572   -0.085772   -0.230211    0.019273
H     2.348706    0.816307   -0.121023   -0.095943    0.572287   -0.040097
12
* Frequency(28) 1506.9295
C     1.302455    0.535228   -0.073479    0.213391   -0.171358    0.007510
C     1.161598   -0.814458    0.031287   -0.416340   -0.018704    0.011504
N    -0.211907   -1.348744    0.105209    0.535576    0.014290   -0.014776
C    -1.321965   -0.585199    0.077449    0.055762    0.066146   -0.006132
N    -1.076071    0.771727   -0.031328    0.133181    0.064568   -0.008266
C     0.215510    1.437993   -0.113798   -0.244660   -0.019882    0.007643
O    -2.400803   -1.055823    0.141193   -0.197312   -0.065716    0.010168
O     0.241989    2.640563   -0.204309    0.022961    0.034332   -0.003137
H     1.938098   -1.592074    0.070629   -0.056773    0.450585   -0.032746
H    -0.115336   -2.383874    0.184397   -1.618021    0.323115    0.017605
H    -1.873226    1.404509   -0.058619   -0.085772   -0.230211    0.019273
H     2.338984    0.874296   -0.125086   -0.095943    0.572287   -0.040097
12
* Frequency(28) 1506.9295
C     1.326706    0.515754   -0.072626    0.213391   -0.171358    0.007510
C     1.114284   -0.816584    0.032594   -0.416340   -0.018704    0.011504
N    -0.151041   -1.347120    0.103530    0.535576    0.014290   -0.014776
C    -1.315628   -0.577682    0.076752    0.055762    0.066146   -0.006132
N    -1.060936    0.779065   -0.032267    0.133181    0.064568   -0.008266
C     0.187706    1.435734   -0.112929   -0.244660   -0.019882    0.007643
O    -2.423226   -1.063291    0.142349   -0.197312   -0.065716    0.010168
O     0.244598    2.644464   -0.204665    0.022961    0.034332   -0.003137
H     1.931646   -1.540867    0.066907   -0.056773    0.450585   -0.032746
H    -0.299216   -2.347153    0.186398   -1.618021    0.323115    0.017605
H    -1.882973    1.378347   -0.056429   -0.085772   -0.230211    0.019273
H     2.328081    0.939334   -0.129643   -0.095943    0.572287   -0.040097
