12
* (null), Energy   -1000.0000000
C     1.326706    0.515754   -0.072626   -0.210648    0.178016   -0.008038
C     1.114284   -0.816584    0.032594    0.131068    0.093279   -0.010484
N    -0.151041   -1.347120    0.103530    0.059118    0.006345   -0.002105
C    -1.315628   -0.577682    0.076752    0.176317   -0.248762    0.014258
N    -1.060936    0.779065   -0.032267    0.019745    0.306382   -0.023648
C     0.187706    1.435734   -0.112929    0.307638    0.029091   -0.009798
O    -2.423226   -1.063291    0.142349   -0.150531   -0.032121    0.006416
O     0.244598    2.644464   -0.204665   -0.067803   -0.165409    0.014048
H     1.931646   -1.540867    0.066907   -0.674298   -0.807633    0.077884
H    -0.299216   -2.347153    0.186398   -1.060057    0.152767    0.016477
H    -1.882973    1.378347   -0.056429   -0.749574   -0.726308    0.073647
H     2.328081    0.939334   -0.129643    0.035043   -0.444337    0.032603
12
* Frequency(27) 1417.5115
C     1.302767    0.535984   -0.073539   -0.210648    0.178016   -0.008038
C     1.129179   -0.805983    0.031403    0.131068    0.093279   -0.010484
N    -0.144323   -1.346399    0.103291    0.059118    0.006345   -0.002105
C    -1.295591   -0.605952    0.078372    0.176317   -0.248762    0.014258
N    -1.058692    0.813883   -0.034955    0.019745    0.306382   -0.023648
C     0.222668    1.439040   -0.114043    0.307638    0.029091   -0.009798
O    -2.440333   -1.066941    0.143078   -0.150531   -0.032121    0.006416
O     0.236893    2.625666   -0.203069   -0.067803   -0.165409    0.014048
H     1.855016   -1.632651    0.075758   -0.674298   -0.807633    0.077884
H    -0.419686   -2.329792    0.188270   -1.060057    0.152767    0.016477
H    -1.968158    1.295806   -0.048059   -0.749574   -0.726308    0.073647
H     2.332063    0.888837   -0.125938    0.035043   -0.444337    0.032603
12
* Frequency(27) 1417.5115
C     1.281422    0.554022   -0.074354   -0.210648    0.178016   -0.008038
C     1.142460   -0.796531    0.030341    0.131068    0.093279   -0.010484
N    -0.138332   -1.345756    0.103077    0.059118    0.006345   -0.002105
C    -1.277724   -0.631159    0.079817    0.176317   -0.248762    0.014258
N    -1.056691    0.844929   -0.037351    0.019745    0.306382   -0.023648
C     0.253840    1.441988   -0.115036    0.307638    0.029091   -0.009798
O    -2.455586   -1.070196    0.143728   -0.150531   -0.032121    0.006416
O     0.230022    2.608906   -0.201645   -0.067803   -0.165409    0.014048
H     1.786689   -1.714488    0.083650   -0.674298   -0.807633    0.077884
H    -0.527101   -2.314312    0.189940   -1.060057    0.152767    0.016477
H    -2.044112    1.222209   -0.040597   -0.749574   -0.726308    0.073647
H     2.335614    0.843813   -0.122635    0.035043   -0.444337    0.032603
12
* Frequency(27) 1417.5115
C     1.264984    0.567914   -0.074981   -0.210648    0.178016   -0.008038
C     1.152688   -0.789252    0.029522    0.131068    0.093279   -0.010484
N    -0.133719   -1.345261    0.102913    0.059118    0.006345   -0.002105
C    -1.263966   -0.650571    0.080930    0.176317   -0.248762    0.014258
N    -1.055150    0.868837   -0.039196    0.019745    0.306382   -0.023648
C     0.277847    1.444258   -0.115800    0.307638    0.029091   -0.009798
O    -2.467333   -1.072703    0.144228   -0.150531   -0.032121    0.006416
O     0.224731    2.595998   -0.200549   -0.067803   -0.165409    0.014048
H     1.734071   -1.777511    0.089728   -0.674298   -0.807633    0.077884
H    -0.609822   -2.302391    0.191226   -1.060057    0.152767    0.016477
H    -2.102605    1.165532   -0.034850   -0.749574   -0.726308    0.073647
H     2.338349    0.809139   -0.120090    0.035043   -0.444337    0.032603
12
* Frequency(27) 1417.5115
C     1.255235    0.576153   -0.075353   -0.210648    0.178016   -0.008038
C     1.158754   -0.784935    0.029037    0.131068    0.093279   -0.010484
N    -0.130983   -1.344967    0.102816    0.059118    0.006345   -0.002105
C    -1.255806   -0.662084    0.081589    0.176317   -0.248762    0.014258
N    -1.054236    0.883017   -0.040291    0.019745    0.306382   -0.023648
C     0.292085    1.445604   -0.116254    0.307638    0.029091   -0.009798
O    -2.474300   -1.074189    0.144525   -0.150531   -0.032121    0.006416
O     0.221593    2.588343   -0.199899   -0.067803   -0.165409    0.014048
H     1.702863   -1.814889    0.093333   -0.674298   -0.807633    0.077884
H    -0.658883   -2.295321    0.191988   -1.060057    0.152767    0.016477
H    -2.137296    1.131917   -0.031441   -0.749574   -0.726308    0.073647
H     2.339970    0.788575   -0.118582    0.035043   -0.444337    0.032603
12
* Frequency(27) 1417.5115
C     1.253231    0.577846   -0.075429   -0.210648    0.178016   -0.008038
C     1.160001   -0.784048    0.028937    0.131068    0.093279   -0.010484
N    -0.130421   -1.344907    0.102796    0.059118    0.006345   -0.002105
C    -1.254128   -0.664451    0.081725    0.176317   -0.248762    0.014258
N    -1.054048    0.885932   -0.040516    0.019745    0.306382   -0.023648
C     0.295012    1.445881   -0.116347    0.307638    0.029091   -0.009798
O    -2.475732   -1.074495    0.144586   -0.150531   -0.032121    0.006416
O     0.220948    2.586769   -0.199765   -0.067803   -0.165409    0.014048
H     1.696448   -1.822574    0.094074   -0.674298   -0.807633    0.077884
H    -0.668969   -2.293867    0.192145   -1.060057    0.152767    0.016477
H    -2.144428    1.125007   -0.030740   -0.749574   -0.726308    0.073647
H     2.340304    0.784347   -0.118271    0.035043   -0.444337    0.032603
12
* Frequency(27) 1417.5115
C     1.259189    0.572811   -0.075202   -0.210648    0.178016   -0.008038
C     1.156294   -0.786686    0.029234    0.131068    0.093279   -0.010484
N    -0.132093   -1.345086    0.102855    0.059118    0.006345   -0.002105
C    -1.259115   -0.657415    0.081322    0.176317   -0.248762    0.014258
N    -1.054607    0.877266   -0.039847    0.019745    0.306382   -0.023648
C     0.286311    1.445058   -0.116070    0.307638    0.029091   -0.009798
O    -2.471474   -1.073586    0.144405   -0.150531   -0.032121    0.006416
O     0.222866    2.591447   -0.200162   -0.067803   -0.165409    0.014048
H     1.715520   -1.799731    0.091871   -0.674298   -0.807633    0.077884
H    -0.638986   -2.298188    0.191679   -1.060057    0.152767    0.016477
H    -2.123227    1.145550   -0.032823   -0.749574   -0.726308    0.073647
H     2.339313    0.796915   -0.119193    0.035043   -0.444337    0.032603
12
* Frequency(27) 1417.5115
C     1.272463    0.561593   -0.074696   -0.210648    0.178016   -0.008038
C     1.148034   -0.792564    0.029895    0.131068    0.093279   -0.010484
N    -0.135818   -1.345486    0.102988    0.059118    0.006345   -0.002105
C    -1.270226   -0.641739    0.080423    0.176317   -0.248762    0.014258
N    -1.055851    0.857959   -0.038357    0.019745    0.306382   -0.023648
C     0.266924    1.443225   -0.115452    0.307638    0.029091   -0.009798
O    -2.461988   -1.071562    0.144001   -0.150531   -0.032121    0.006416
O     0.227139    2.601871   -0.201048   -0.067803   -0.165409    0.014048
H     1.758012   -1.748836    0.086963   -0.674298   -0.807633    0.077884
H    -0.572184   -2.307815    0.190641   -1.060057    0.152767    0.016477
H    -2.075991    1.191320   -0.037464   -0.749574   -0.726308    0.073647
H     2.337104    0.824916   -0.121248    0.035043   -0.444337    0.032603
12
* Frequency(27) 1417.5115
C     1.291616    0.545408   -0.073965   -0.210648    0.178016   -0.008038
C     1.136117   -0.801045    0.030848    0.131068    0.093279   -0.010484
N    -0.141193   -1.346063    0.103179    0.059118    0.006345   -0.002105
C    -1.286257   -0.619121    0.079127    0.176317   -0.248762    0.014258
N    -1.057647    0.830102   -0.036207    0.019745    0.306382   -0.023648
C     0.238953    1.440580   -0.114561    0.307638    0.029091   -0.009798
O    -2.448302   -1.068642    0.143417   -0.150531   -0.032121    0.006416
O     0.233303    2.616910   -0.202325   -0.067803   -0.165409    0.014048
H     1.819320   -1.675404    0.079881   -0.674298   -0.807633    0.077884
H    -0.475802   -2.321705    0.189142   -1.060057    0.152767    0.016477
H    -2.007838    1.257357   -0.044161   -0.749574   -0.726308    0.073647
H     2.333918    0.865315   -0.124212    0.035043   -0.444337    0.032603
12
* Frequency(27) 1417.5115
C     1.314571    0.526009   -0.073089   -0.210648    0.178016   -0.008038
C     1.121834   -0.811210    0.031990    0.131068    0.093279   -0.010484
N    -0.147636   -1.346754    0.103408    0.059118    0.006345   -0.002105
C    -1.305471   -0.592013    0.077573    0.176317   -0.248762    0.014258
N    -1.059798    0.796715   -0.033629    0.019745    0.306382   -0.023648
C     0.205429    1.437410   -0.113494    0.307638    0.029091   -0.009798
O    -2.431898   -1.065141    0.142718   -0.150531   -0.032121    0.006416
O     0.240692    2.634935   -0.203856   -0.067803   -0.165409    0.014048
H     1.892801   -1.587394    0.071394   -0.674298   -0.807633    0.077884
H    -0.360284   -2.338353    0.187347   -1.060057    0.152767    0.016477
H    -1.926155    1.336505   -0.052186   -0.749574   -0.726308    0.073647
H     2.330100    0.913736   -0.127765    0.035043   -0.444337    0.032603
12
* Frequency(27) 1417.5115
C     1.338841    0.505498   -0.072163   -0.210648    0.178016   -0.008038
C     1.106733   -0.821957    0.033198    0.131068    0.093279   -0.010484
N    -0.154447   -1.347486    0.103651    0.059118    0.006345   -0.002105
C    -1.325785   -0.563351    0.075931    0.176317   -0.248762    0.014258
N    -1.062073    0.761415   -0.030905    0.019745    0.306382   -0.023648
C     0.169984    1.434058   -0.112365    0.307638    0.029091   -0.009798
O    -2.414554   -1.061440    0.141979   -0.150531   -0.032121    0.006416
O     0.248504    2.653993   -0.205474   -0.067803   -0.165409    0.014048
H     1.970491   -1.494341    0.062420   -0.674298   -0.807633    0.077884
H    -0.238148   -2.355954    0.185448   -1.060057    0.152767    0.016477
H    -1.839792    1.420188   -0.060671   -0.749574   -0.726308    0.073647
H     2.326062    0.964931   -0.131521    0.035043   -0.444337    0.032603
12
* Frequency(27) 1417.5115
C     1.361796    0.486099   -0.071287   -0.210648    0.178016   -0.008038
C     1.092450   -0.832122    0.034341    0.131068    0.093279   -0.010484
N    -0.160889   -1.348177    0.103880    0.059118    0.006345   -0.002105
C    -1.344999   -0.536243    0.074377    0.176317   -0.248762    0.014258
N    -1.064225    0.728027   -0.028328    0.019745    0.306382   -0.023648
C     0.136459    1.430888   -0.111297    0.307638    0.029091   -0.009798
O    -2.398150   -1.057940    0.141280   -0.150531   -0.032121    0.006416
O     0.255893    2.672018   -0.207005   -0.067803   -0.165409    0.014048
H     2.043972   -1.406331    0.053933   -0.674298   -0.807633    0.077884
H    -0.122630   -2.372602    0.183653   -1.060057    0.152767    0.016477
H    -1.758108    1.499336   -0.068697   -0.749574   -0.726308    0.073647
H     2.322243    1.013352   -0.135074    0.035043   -0.444337    0.032603
12
* Frequency(27) 1417.5115
C     1.380949    0.469914   -0.070556   -0.210648    0.178016   -0.008038
C     1.080533   -0.840603    0.035294    0.131068    0.093279   -0.010484
N    -0.166264   -1.348754    0.104072    0.059118    0.006345   -0.002105
C    -1.361030   -0.513625    0.073080    0.176317   -0.248762    0.014258
N    -1.066020    0.700170   -0.026178    0.019745    0.306382   -0.023648
C     0.108488    1.428243   -0.110406    0.307638    0.029091   -0.009798
O    -2.384464   -1.055019    0.140696   -0.150531   -0.032121    0.006416
O     0.262058    2.687058   -0.208282   -0.067803   -0.165409    0.014048
H     2.105280   -1.332899    0.046852   -0.674298   -0.807633    0.077884
H    -0.026248   -2.386491    0.182155   -1.060057    0.152767    0.016477
H    -1.689955    1.565374   -0.075393   -0.749574   -0.726308    0.073647
H     2.319057    1.053752   -0.138039    0.035043   -0.444337    0.032603
12
* Frequency(27) 1417.5115
C     1.394223    0.458696   -0.070050   -0.210648    0.178016   -0.008038
C     1.072273   -0.846481    0.035955    0.131068    0.093279   -0.010484
N    -0.169990   -1.349154    0.104204    0.059118    0.006345   -0.002105
C    -1.372141   -0.497948    0.072182    0.176317   -0.248762    0.014258
N    -1.067264    0.680863   -0.024687    0.019745    0.306382   -0.023648
C     0.089102    1.426410   -0.109789    0.307638    0.029091   -0.009798
O    -2.374978   -1.052995    0.140292   -0.150531   -0.032121    0.006416
O     0.266330    2.697481   -0.209168   -0.067803   -0.165409    0.014048
H     2.147773   -1.282004    0.041944   -0.674298   -0.807633    0.077884
H     0.040554   -2.396118    0.181117   -1.060057    0.152767    0.016477
H    -1.642719    1.611144   -0.080034   -0.749574   -0.726308    0.073647
H     2.316849    1.081753   -0.140093    0.035043   -0.444337    0.032603
12
* Frequency(27) 1417.5115
C     1.400181    0.453661   -0.069822   -0.210648    0.178016   -0.008038
C     1.068566   -0.849120    0.036251    0.131068    0.093279   -0.010484
N    -0.171662   -1.349333    0.104264    0.059118    0.006345   -0.002105
C    -1.377128   -0.490912    0.071779    0.176317   -0.248762    0.014258
N    -1.067823    0.672197   -0.024018    0.019745    0.306382   -0.023648
C     0.080400    1.425587   -0.109512    0.307638    0.029091   -0.009798
O    -2.370720   -1.052087    0.140111   -0.150531   -0.032121    0.006416
O     0.268248    2.702160   -0.209565   -0.067803   -0.165409    0.014048
H     2.166844   -1.259161    0.039741   -0.674298   -0.807633    0.077884
H     0.070536   -2.400439    0.180650   -1.060057    0.152767    0.016477
H    -1.621518    1.631686   -0.082117   -0.749574   -0.726308    0.073647
H     2.315858    1.094321   -0.141015    0.035043   -0.444337    0.032603
12
* Frequency(27) 1417.5115
C     1.398177    0.455355   -0.069899   -0.210648    0.178016   -0.008038
C     1.069813   -0.848232    0.036151    0.131068    0.093279   -0.010484
N    -0.171100   -1.349273    0.104244    0.059118    0.006345   -0.002105
C    -1.375451   -0.493279    0.071914    0.176317   -0.248762    0.014258
N    -1.067635    0.675112   -0.024243    0.019745    0.306382   -0.023648
C     0.083327    1.425864   -0.109605    0.307638    0.029091   -0.009798
O    -2.372153   -1.052392    0.140172   -0.150531   -0.032121    0.006416
O     0.267603    2.700586   -0.209431   -0.067803   -0.165409    0.014048
H     2.160429   -1.266845    0.040482   -0.674298   -0.807633    0.077884
H     0.060451   -2.398986    0.180807   -1.060057    0.152767    0.016477
H    -1.628650    1.624776   -0.081416   -0.749574   -0.726308    0.073647
H     2.316191    1.090093   -0.140705    0.035043   -0.444337    0.032603
12
* Frequency(27) 1417.5115
C     1.388428    0.463594   -0.070271   -0.210648    0.178016   -0.008038
C     1.075879   -0.843915    0.035666    0.131068    0.093279   -0.010484
N    -0.168363   -1.348979    0.104147    0.059118    0.006345   -0.002105
C    -1.367290   -0.504792    0.072574    0.176317   -0.248762    0.014258
N    -1.066721    0.689292   -0.025338    0.019745    0.306382   -0.023648
C     0.097565    1.427210   -0.110058    0.307638    0.029091   -0.009798
O    -2.379119   -1.053879    0.140469   -0.150531   -0.032121    0.006416
O     0.264465    2.692930   -0.208781   -0.067803   -0.165409    0.014048
H     2.129221   -1.304224    0.044086   -0.674298   -0.807633    0.077884
H     0.011389   -2.391915    0.181570   -1.060057    0.152767    0.016477
H    -1.663342    1.591161   -0.078008   -0.749574   -0.726308    0.073647
H     2.317813    1.069528   -0.139196    0.035043   -0.444337    0.032603
12
* Frequency(27) 1417.5115
C     1.371990    0.477485   -0.070898   -0.210648    0.178016   -0.008038
C     1.086107   -0.836636    0.034848    0.131068    0.093279   -0.010484
N    -0.163750   -1.348484    0.103982    0.059118    0.006345   -0.002105
C    -1.353532   -0.524204    0.073687    0.176317   -0.248762    0.014258
N    -1.065180    0.713200   -0.027183    0.019745    0.306382   -0.023648
C     0.121572    1.429480   -0.110823    0.307638    0.029091   -0.009798
O    -2.390866   -1.056386    0.140969   -0.150531   -0.032121    0.006416
O     0.259174    2.680023   -0.207685   -0.067803   -0.165409    0.014048
H     2.076603   -1.367247    0.050164   -0.674298   -0.807633    0.077884
H    -0.071331   -2.379994    0.182856   -1.060057    0.152767    0.016477
H    -1.721834    1.534485   -0.072261   -0.749574   -0.726308    0.073647
H     2.320548    1.034855   -0.136652    0.035043   -0.444337    0.032603
12
* Frequency(27) 1417.5115
C     1.350645    0.495523   -0.071712   -0.210648    0.178016   -0.008038
C     1.099388   -0.827184    0.033786    0.131068    0.093279   -0.010484
N    -0.157760   -1.347841    0.103769    0.059118    0.006345   -0.002105
C    -1.335666   -0.549411    0.075132    0.176317   -0.248762    0.014258
N    -1.063180    0.744246   -0.029580    0.019745    0.306382   -0.023648
C     0.152745    1.432428   -0.111816    0.307638    0.029091   -0.009798
O    -2.406119   -1.059640    0.141619   -0.150531   -0.032121    0.006416
O     0.252304    2.663262   -0.206262   -0.067803   -0.165409    0.014048
H     2.008277   -1.449084    0.058056   -0.674298   -0.807633    0.077884
H    -0.178746   -2.364515    0.184525   -1.060057    0.152767    0.016477
H    -1.797788    1.460888   -0.064798   -0.749574   -0.726308    0.073647
H     2.324098    0.989831   -0.133348    0.035043   -0.444337    0.032603
12
* Frequency(27) 1417.5115
C     1.326706    0.515754   -0.072626   -0.210648    0.178016   -0.008038
C     1.114284   -0.816584    0.032594    0.131068    0.093279   -0.010484
N    -0.151041   -1.347120    0.103530    0.059118    0.006345   -0.002105
C    -1.315628   -0.577682    0.076752    0.176317   -0.248762    0.014258
N    -1.060936    0.779065   -0.032267    0.019745    0.306382   -0.023648
C     0.187706    1.435734   -0.112929    0.307638    0.029091   -0.009798
O    -2.423226   -1.063291    0.142349   -0.150531   -0.032121    0.006416
O     0.244598    2.644464   -0.204665   -0.067803   -0.165409    0.014048
H     1.931646   -1.540867    0.066907   -0.674298   -0.807633    0.077884
H    -0.299216   -2.347153    0.186398   -1.060057    0.152767    0.016477
H    -1.882973    1.378347   -0.056429   -0.749574   -0.726308    0.073647
H     2.328081    0.939334   -0.129643    0.035043   -0.444337    0.032603
