12
* (null), Energy   -1000.0000000
C     1.629965    0.315610   -0.065301    0.025859    0.001186   -0.000746
C     1.417359   -1.016714    0.040627   -0.127839    0.118775   -0.005701
N     0.152106   -1.547217    0.113051    0.002600   -0.000803   -0.000011
C    -1.012934   -0.778188    0.084369    0.002489   -0.001312    0.000036
N    -0.757957    0.578797   -0.024165    0.000056    0.000274   -0.000022
C     0.490659    1.235340   -0.105671   -0.000206   -0.000580    0.000050
O    -2.120393   -1.263598    0.148925   -0.000558    0.000013    0.000014
O     0.547838    2.444022   -0.198224    0.000042    0.000359   -0.000029
H     2.234675   -1.741152    0.074482    1.471890   -1.299899    0.060581
H     0.004476   -2.547394    0.191756   -0.008767    0.017777   -0.001099
H    -1.579890    1.178069   -0.048486    0.001441   -0.000637    0.000011
H     2.631499    0.738614   -0.122607   -0.305331   -0.122670    0.016999
12
* Frequency(32) 3204.0490
C     1.632904    0.315745   -0.065386    0.025859    0.001186   -0.000746
C     1.402831   -1.003216    0.039979   -0.127839    0.118775   -0.005701
N     0.152402   -1.547308    0.113050    0.002600   -0.000803   -0.000011
C    -1.012651   -0.778337    0.084373    0.002489   -0.001312    0.000036
N    -0.757950    0.578828   -0.024167    0.000056    0.000274   -0.000022
C     0.490635    1.235274   -0.105665   -0.000206   -0.000580    0.000050
O    -2.120456   -1.263596    0.148926   -0.000558    0.000013    0.000014
O     0.547843    2.444063   -0.198227    0.000042    0.000359   -0.000029
H     2.401948   -1.888878    0.081366    1.471890   -1.299899    0.060581
H     0.003480   -2.545374    0.191631   -0.008767    0.017777   -0.001099
H    -1.579726    1.177996   -0.048484    0.001441   -0.000637    0.000011
H     2.596800    0.724673   -0.120675   -0.305331   -0.122670    0.016999
12
* Frequency(32) 3204.0490
C     1.635524    0.315865   -0.065461    0.025859    0.001186   -0.000746
C     1.389877   -0.991181    0.039402   -0.127839    0.118775   -0.005701
N     0.152665   -1.547390    0.113049    0.002600   -0.000803   -0.000011
C    -1.012399   -0.778470    0.084377    0.002489   -0.001312    0.000036
N    -0.757945    0.578856   -0.024170    0.000056    0.000274   -0.000022
C     0.490614    1.235215   -0.105660   -0.000206   -0.000580    0.000050
O    -2.120513   -1.263595    0.148928   -0.000558    0.000013    0.000014
O     0.547847    2.444099   -0.198230    0.000042    0.000359   -0.000029
H     2.551094   -2.020597    0.087505    1.471890   -1.299899    0.060581
H     0.002592   -2.543573    0.191520   -0.008767    0.017777   -0.001099
H    -1.579580    1.177932   -0.048483    0.001441   -0.000637    0.000011
H     2.565861    0.712243   -0.118953   -0.305331   -0.122670    0.016999
12
* Frequency(32) 3204.0490
C     1.637542    0.315958   -0.065519    0.025859    0.001186   -0.000746
C     1.379901   -0.981912    0.038957   -0.127839    0.118775   -0.005701
N     0.152868   -1.547452    0.113048    0.002600   -0.000803   -0.000011
C    -1.012205   -0.778572    0.084380    0.002489   -0.001312    0.000036
N    -0.757940    0.578877   -0.024171    0.000056    0.000274   -0.000022
C     0.490598    1.235170   -0.105656   -0.000206   -0.000580    0.000050
O    -2.120556   -1.263594    0.148929   -0.000558    0.000013    0.000014
O     0.547851    2.444127   -0.198232    0.000042    0.000359   -0.000029
H     2.665951   -2.122033    0.092232    1.471890   -1.299899    0.060581
H     0.001908   -2.542185    0.191434   -0.008767    0.017777   -0.001099
H    -1.579467    1.177882   -0.048482    0.001441   -0.000637    0.000011
H     2.542035    0.702671   -0.117626   -0.305331   -0.122670    0.016999
12
* Frequency(32) 3204.0490
C     1.638739    0.316012   -0.065554    0.025859    0.001186   -0.000746
C     1.373985   -0.976415    0.038693   -0.127839    0.118775   -0.005701
N     0.152988   -1.547489    0.113048    0.002600   -0.000803   -0.000011
C    -1.012090   -0.778633    0.084382    0.002489   -0.001312    0.000036
N    -0.757938    0.578890   -0.024172    0.000056    0.000274   -0.000022
C     0.490589    1.235143   -0.105654   -0.000206   -0.000580    0.000050
O    -2.120582   -1.263593    0.148929   -0.000558    0.000013    0.000014
O     0.547853    2.444144   -0.198233    0.000042    0.000359   -0.000029
H     2.734073   -2.182195    0.095036    1.471890   -1.299899    0.060581
H     0.001502   -2.541363    0.191383   -0.008767    0.017777   -0.001099
H    -1.579401    1.177853   -0.048482    0.001441   -0.000637    0.000011
H     2.527903    0.696994   -0.116840   -0.305331   -0.122670    0.016999
12
* Frequency(32) 3204.0490
C     1.638985    0.316024   -0.065561    0.025859    0.001186   -0.000746
C     1.372768   -0.975285    0.038639   -0.127839    0.118775   -0.005701
N     0.153013   -1.547497    0.113048    0.002600   -0.000803   -0.000011
C    -1.012066   -0.778645    0.084382    0.002489   -0.001312    0.000036
N    -0.757937    0.578892   -0.024173    0.000056    0.000274   -0.000022
C     0.490587    1.235137   -0.105653   -0.000206   -0.000580    0.000050
O    -2.120587   -1.263593    0.148930   -0.000558    0.000013    0.000014
O     0.547853    2.444147   -0.198234    0.000042    0.000359   -0.000029
H     2.748077   -2.194562    0.095612    1.471890   -1.299899    0.060581
H     0.001418   -2.541194    0.191372   -0.008767    0.017777   -0.001099
H    -1.579387    1.177847   -0.048482    0.001441   -0.000637    0.000011
H     2.524998    0.695826   -0.116678   -0.305331   -0.122670    0.016999
12
* Frequency(32) 3204.0490
C     1.638253    0.315990   -0.065540    0.025859    0.001186   -0.000746
C     1.376384   -0.978644    0.038800   -0.127839    0.118775   -0.005701
N     0.152940   -1.547474    0.113048    0.002600   -0.000803   -0.000011
C    -1.012137   -0.778608    0.084381    0.002489   -0.001312    0.000036
N    -0.757939    0.578885   -0.024172    0.000056    0.000274   -0.000022
C     0.490593    1.235154   -0.105655   -0.000206   -0.000580    0.000050
O    -2.120572   -1.263594    0.148929   -0.000558    0.000013    0.000014
O     0.547852    2.444137   -0.198233    0.000042    0.000359   -0.000029
H     2.706446   -2.157796    0.093899    1.471890   -1.299899    0.060581
H     0.001666   -2.541696    0.191404   -0.008767    0.017777   -0.001099
H    -1.579428    1.177865   -0.048482    0.001441   -0.000637    0.000011
H     2.533634    0.699296   -0.117159   -0.305331   -0.122670    0.016999
12
* Frequency(32) 3204.0490
C     1.636624    0.315915   -0.065493    0.025859    0.001186   -0.000746
C     1.384440   -0.986129    0.039159   -0.127839    0.118775   -0.005701
N     0.152776   -1.547424    0.113049    0.002600   -0.000803   -0.000011
C    -1.012293   -0.778526    0.084379    0.002489   -0.001312    0.000036
N    -0.757942    0.578867   -0.024170    0.000056    0.000274   -0.000022
C     0.490606    1.235190   -0.105658   -0.000206   -0.000580    0.000050
O    -2.120536   -1.263594    0.148928   -0.000558    0.000013    0.000014
O     0.547849    2.444114   -0.198231    0.000042    0.000359   -0.000029
H     2.613692   -2.075880    0.090081    1.471890   -1.299899    0.060581
H     0.002219   -2.542817    0.191473   -0.008767    0.017777   -0.001099
H    -1.579519    1.177905   -0.048483    0.001441   -0.000637    0.000011
H     2.552875    0.707026   -0.118230   -0.305331   -0.122670    0.016999
12
* Frequency(32) 3204.0490
C     1.634273    0.315808   -0.065425    0.025859    0.001186   -0.000746
C     1.396063   -0.996928    0.039677   -0.127839    0.118775   -0.005701
N     0.152539   -1.547351    0.113050    0.002600   -0.000803   -0.000011
C    -1.012520   -0.778406    0.084375    0.002489   -0.001312    0.000036
N    -0.757947    0.578843   -0.024168    0.000056    0.000274   -0.000022
C     0.490624    1.235243   -0.105662   -0.000206   -0.000580    0.000050
O    -2.120486   -1.263596    0.148927   -0.000558    0.000013    0.000014
O     0.547845    2.444082   -0.198228    0.000042    0.000359   -0.000029
H     2.479865   -1.957691    0.084573    1.471890   -1.299899    0.060581
H     0.003016   -2.544433    0.191573   -0.008767    0.017777   -0.001099
H    -1.579650    1.177963   -0.048484    0.001441   -0.000637    0.000011
H     2.580637    0.718180   -0.119775   -0.305331   -0.122670    0.016999
12
* Frequency(32) 3204.0490
C     1.631455    0.315678   -0.065344    0.025859    0.001186   -0.000746
C     1.409994   -1.009872    0.040299   -0.127839    0.118775   -0.005701
N     0.152256   -1.547263    0.113051    0.002600   -0.000803   -0.000011
C    -1.012791   -0.778263    0.084371    0.002489   -0.001312    0.000036
N    -0.757953    0.578813   -0.024166    0.000056    0.000274   -0.000022
C     0.490647    1.235306   -0.105668   -0.000206   -0.000580    0.000050
O    -2.120425   -1.263597    0.148926   -0.000558    0.000013    0.000014
O     0.547841    2.444043   -0.198225    0.000042    0.000359   -0.000029
H     2.319468   -1.816036    0.077971    1.471890   -1.299899    0.060581
H     0.003971   -2.546370    0.191692   -0.008767    0.017777   -0.001099
H    -1.579807    1.178032   -0.048485    0.001441   -0.000637    0.000011
H     2.613910    0.731547   -0.121628   -0.305331   -0.122670    0.016999
12
* Frequency(32) 3204.0490
C     1.628475    0.315542   -0.065258    0.025859    0.001186   -0.000746
C     1.424724   -1.023557    0.040955   -0.127839    0.118775   -0.005701
N     0.151956   -1.547171    0.113052    0.002600   -0.000803   -0.000011
C    -1.013078   -0.778112    0.084367    0.002489   -0.001312    0.000036
N    -0.757960    0.578781   -0.024163    0.000056    0.000274   -0.000022
C     0.490670    1.235373   -0.105674   -0.000206   -0.000580    0.000050
O    -2.120361   -1.263599    0.148924   -0.000558    0.000013    0.000014
O     0.547836    2.444001   -0.198222    0.000042    0.000359   -0.000029
H     2.149882   -1.666267    0.070992    1.471890   -1.299899    0.060581
H     0.004981   -2.548418    0.191819   -0.008767    0.017777   -0.001099
H    -1.579973    1.178105   -0.048486    0.001441   -0.000637    0.000011
H     2.649089    0.745681   -0.123586   -0.305331   -0.122670    0.016999
12
* Frequency(32) 3204.0490
C     1.625657    0.315412   -0.065177    0.025859    0.001186   -0.000746
C     1.438655   -1.036500    0.041577   -0.127839    0.118775   -0.005701
N     0.151673   -1.547083    0.113053    0.002600   -0.000803   -0.000011
C    -1.013349   -0.777969    0.084363    0.002489   -0.001312    0.000036
N    -0.757966    0.578751   -0.024161    0.000056    0.000274   -0.000022
C     0.490693    1.235437   -0.105679   -0.000206   -0.000580    0.000050
O    -2.120300   -1.263600    0.148923   -0.000558    0.000013    0.000014
O     0.547831    2.443962   -0.198219    0.000042    0.000359   -0.000029
H     1.989485   -1.524612    0.064390    1.471890   -1.299899    0.060581
H     0.005937   -2.550356    0.191939   -0.008767    0.017777   -0.001099
H    -1.580130    1.178175   -0.048487    0.001441   -0.000637    0.000011
H     2.682362    0.759049   -0.125439   -0.305331   -0.122670    0.016999
12
* Frequency(32) 3204.0490
C     1.623306    0.315305   -0.065109    0.025859    0.001186   -0.000746
C     1.450278   -1.047299    0.042095   -0.127839    0.118775   -0.005701
N     0.151437   -1.547010    0.113054    0.002600   -0.000803   -0.000011
C    -1.013575   -0.777850    0.084360    0.002489   -0.001312    0.000036
N    -0.757971    0.578726   -0.024159    0.000056    0.000274   -0.000022
C     0.490712    1.235489   -0.105684   -0.000206   -0.000580    0.000050
O    -2.120249   -1.263601    0.148921   -0.000558    0.000013    0.000014
O     0.547828    2.443930   -0.198216    0.000042    0.000359   -0.000029
H     1.855658   -1.406423    0.058882    1.471890   -1.299899    0.060581
H     0.006734   -2.551972    0.192039   -0.008767    0.017777   -0.001099
H    -1.580261    1.178232   -0.048488    0.001441   -0.000637    0.000011
H     2.710123    0.770202   -0.126985   -0.305331   -0.122670    0.016999
12
* Frequency(32) 3204.0490
C     1.621677    0.315230   -0.065062    0.025859    0.001186   -0.000746
C     1.458334   -1.054784    0.042454   -0.127839    0.118775   -0.005701
N     0.151273   -1.546960    0.113055    0.002600   -0.000803   -0.000011
C    -1.013732   -0.777767    0.084358    0.002489   -0.001312    0.000036
N    -0.757975    0.578709   -0.024158    0.000056    0.000274   -0.000022
C     0.490725    1.235526   -0.105687   -0.000206   -0.000580    0.000050
O    -2.120214   -1.263602    0.148920   -0.000558    0.000013    0.000014
O     0.547825    2.443907   -0.198214    0.000042    0.000359   -0.000029
H     1.762904   -1.324507    0.055064    1.471890   -1.299899    0.060581
H     0.007286   -2.553092    0.192108   -0.008767    0.017777   -0.001099
H    -1.580352    1.178273   -0.048489    0.001441   -0.000637    0.000011
H     2.729364    0.777932   -0.128056   -0.305331   -0.122670    0.016999
12
* Frequency(32) 3204.0490
C     1.620945    0.315196   -0.065041    0.025859    0.001186   -0.000746
C     1.461950   -1.058144    0.042615   -0.127839    0.118775   -0.005701
N     0.151199   -1.546937    0.113055    0.002600   -0.000803   -0.000011
C    -1.013802   -0.777730    0.084357    0.002489   -0.001312    0.000036
N    -0.757976    0.578701   -0.024157    0.000056    0.000274   -0.000022
C     0.490730    1.235542   -0.105688   -0.000206   -0.000580    0.000050
O    -2.120198   -1.263602    0.148920   -0.000558    0.000013    0.000014
O     0.547824    2.443897   -0.198213    0.000042    0.000359   -0.000029
H     1.721273   -1.287741    0.053351    1.471890   -1.299899    0.060581
H     0.007534   -2.553595    0.192139   -0.008767    0.017777   -0.001099
H    -1.580392    1.178291   -0.048489    0.001441   -0.000637    0.000011
H     2.738000    0.781402   -0.128537   -0.305331   -0.122670    0.016999
12
* Frequency(32) 3204.0490
C     1.621191    0.315207   -0.065048    0.025859    0.001186   -0.000746
C     1.460733   -1.057014    0.042561   -0.127839    0.118775   -0.005701
N     0.151224   -1.546944    0.113055    0.002600   -0.000803   -0.000011
C    -1.013779   -0.777743    0.084357    0.002489   -0.001312    0.000036
N    -0.757976    0.578704   -0.024157    0.000056    0.000274   -0.000022
C     0.490728    1.235537   -0.105688   -0.000206   -0.000580    0.000050
O    -2.120203   -1.263602    0.148920   -0.000558    0.000013    0.000014
O     0.547824    2.443900   -0.198214    0.000042    0.000359   -0.000029
H     1.735277   -1.300109    0.053927    1.471890   -1.299899    0.060581
H     0.007451   -2.553426    0.192129   -0.008767    0.017777   -0.001099
H    -1.580379    1.178285   -0.048489    0.001441   -0.000637    0.000011
H     2.735095    0.780235   -0.128375   -0.305331   -0.122670    0.016999
12
* Frequency(32) 3204.0490
C     1.622388    0.315262   -0.065082    0.025859    0.001186   -0.000746
C     1.454817   -1.051516    0.042297   -0.127839    0.118775   -0.005701
N     0.151344   -1.546982    0.113055    0.002600   -0.000803   -0.000011
C    -1.013663   -0.777803    0.084359    0.002489   -0.001312    0.000036
N    -0.757973    0.578717   -0.024158    0.000056    0.000274   -0.000022
C     0.490719    1.235510   -0.105686   -0.000206   -0.000580    0.000050
O    -2.120229   -1.263602    0.148921   -0.000558    0.000013    0.000014
O     0.547826    2.443917   -0.198215    0.000042    0.000359   -0.000029
H     1.803399   -1.360270    0.056731    1.471890   -1.299899    0.060581
H     0.007045   -2.552603    0.192078   -0.008767    0.017777   -0.001099
H    -1.580312    1.178255   -0.048489    0.001441   -0.000637    0.000011
H     2.720964    0.774557   -0.127588   -0.305331   -0.122670    0.016999
12
* Frequency(32) 3204.0490
C     1.624406    0.315355   -0.065141    0.025859    0.001186   -0.000746
C     1.444841   -1.042248    0.041853   -0.127839    0.118775   -0.005701
N     0.151547   -1.547044    0.113054    0.002600   -0.000803   -0.000011
C    -1.013469   -0.777906    0.084362    0.002489   -0.001312    0.000036
N    -0.757969    0.578738   -0.024160    0.000056    0.000274   -0.000022
C     0.490703    1.235465   -0.105682   -0.000206   -0.000580    0.000050
O    -2.120273   -1.263601    0.148922   -0.000558    0.000013    0.000014
O     0.547829    2.443945   -0.198217    0.000042    0.000359   -0.000029
H     1.918256   -1.461706    0.061458    1.471890   -1.299899    0.060581
H     0.006361   -2.551216    0.191992   -0.008767    0.017777   -0.001099
H    -1.580200    1.178205   -0.048488    0.001441   -0.000637    0.000011
H     2.697138    0.764985   -0.126262   -0.305331   -0.122670    0.016999
12
* Frequency(32) 3204.0490
C     1.627026    0.315475   -0.065216    0.025859    0.001186   -0.000746
C     1.431887   -1.030212    0.041275   -0.127839    0.118775   -0.005701
N     0.151811   -1.547126    0.113053    0.002600   -0.000803   -0.000011
C    -1.013217   -0.778039    0.084365    0.002489   -0.001312    0.000036
N    -0.757963    0.578766   -0.024162    0.000056    0.000274   -0.000022
C     0.490682    1.235406   -0.105677   -0.000206   -0.000580    0.000050
O    -2.120329   -1.263599    0.148923   -0.000558    0.000013    0.000014
O     0.547834    2.443981   -0.198220    0.000042    0.000359   -0.000029
H     2.067402   -1.593425    0.067597    1.471890   -1.299899    0.060581
H     0.005473   -2.549415    0.191881   -0.008767    0.017777   -0.001099
H    -1.580054    1.178141   -0.048487    0.001441   -0.000637    0.000011
H     2.666198    0.752555   -0.124539   -0.305331   -0.122670    0.016999
12
* Frequency(32) 3204.0490
C     1.629965    0.315610   -0.065301    0.025859    0.001186   -0.000746
C     1.417359   -1.016714    0.040627   -0.127839    0.118775   -0.005701
N     0.152106   -1.547217    0.113051    0.002600   -0.000803   -0.000011
C    -1.012934   -0.778188    0.084369    0.002489   -0.001312    0.000036
N    -0.757957    0.578797   -0.024165    0.000056    0.000274   -0.000022
C     0.490659    1.235340   -0.105671   -0.000206   -0.000580    0.000050
O    -2.120393   -1.263598    0.148925   -0.000558    0.000013    0.000014
O     0.547838    2.444022   -0.198224    0.000042    0.000359   -0.000029
H     2.234675   -1.741152    0.074482    1.471890   -1.299899    0.060581
H     0.004476   -2.547394    0.191756   -0.008767    0.017777   -0.001099
H    -1.579890    1.178069   -0.048486    0.001441   -0.000637    0.000011
H     2.631499    0.738614   -0.122607   -0.305331   -0.122670    0.016999
