12
* (null), Energy   -1000.0000000
C     1.326706    0.515754   -0.072626    0.000000    0.000000    0.000000
C     1.114284   -0.816584    0.032594    0.000000    0.000000    0.000000
N    -0.151041   -1.347120    0.103530    0.000000    0.000000    0.000000
C    -1.315628   -0.577682    0.076752    0.000000    0.000000    0.000000
N    -1.060936    0.779065   -0.032267    0.000000    0.000000    0.000000
C     0.187706    1.435734   -0.112929    0.000000    0.000000    0.000000
O    -2.423226   -1.063291    0.142349    0.000000    0.000000    0.000000
O     0.244598    2.644464   -0.204665    0.000000    0.000000    0.000000
H     1.931646   -1.540867    0.066907    0.000000    0.000000    0.000000
H    -0.299216   -2.347153    0.186398    0.000000    0.000000    0.000000
H    -1.882973    1.378347   -0.056429    0.000000    0.000000    0.000000
H     2.328081    0.939334   -0.129643    0.000000    0.000000    0.000000
12
* Frequency(5)    0.0000
C     1.326706    0.515754   -0.072626    0.000000    0.000000    0.000000
C     1.114284   -0.816584    0.032594    0.000000    0.000000    0.000000
N    -0.151041   -1.347120    0.103530    0.000000    0.000000    0.000000
C    -1.315628   -0.577682    0.076752    0.000000    0.000000    0.000000
N    -1.060936    0.779065   -0.032267    0.000000    0.000000    0.000000
C     0.187706    1.435734   -0.112929    0.000000    0.000000    0.000000
O    -2.423226   -1.063291    0.142349    0.000000    0.000000    0.000000
O     0.244598    2.644464   -0.204665    0.000000    0.000000    0.000000
H     1.931646   -1.540867    0.066907    0.000000    0.000000    0.000000
H    -0.299216   -2.347153    0.186398    0.000000    0.000000    0.000000
H    -1.882973    1.378347   -0.056429    0.000000    0.000000    0.000000
H     2.328081    0.939334   -0.129643    0.000000    0.000000    0.000000
12
* Frequency(5)    0.0000
C     1.326706    0.515754   -0.072626    0.000000    0.000000    0.000000
C     1.114284   -0.816584    0.032594    0.000000    0.000000    0.000000
N    -0.151041   -1.347120    0.103530    0.000000    0.000000    0.000000
C    -1.315628   -0.577682    0.076752    0.000000    0.000000    0.000000
N    -1.060936    0.779065   -0.032267    0.000000    0.000000    0.000000
C     0.187706    1.435734   -0.112929    0.000000    0.000000    0.000000
O    -2.423226   -1.063291    0.142349    0.000000    0.000000    0.000000
O     0.244598    2.644464   -0.204665    0.000000    0.000000    0.000000
H     1.931646   -1.540867    0.066907    0.000000    0.000000    0.000000
H    -0.299216   -2.347153    0.186398    0.000000    0.000000    0.000000
H    -1.882973    1.378347   -0.056429    0.000000    0.000000    0.000000
H     2.328081    0.939334   -0.129643    0.000000    0.000000    0.000000
12
* Frequency(5)    0.0000
C     1.326706    0.515754   -0.072626    0.000000    0.000000    0.000000
C     1.114284   -0.816584    0.032594    0.000000    0.000000    0.000000
N    -0.151041   -1.347120    0.103530    0.000000    0.000000    0.000000
C    -1.315628   -0.577682    0.076752    0.000000    0.000000    0.000000
N    -1.060936    0.779065   -0.032267    0.000000    0.000000    0.000000
C     0.187706    1.435734   -0.112929    0.000000    0.000000    0.000000
O    -2.423226   -1.063291    0.142349    0.000000    0.000000    0.000000
O     0.244598    2.644464   -0.204665    0.000000    0.000000    0.000000
H     1.931646   -1.540867    0.066907    0.000000    0.000000    0.000000
H    -0.299216   -2.347153    0.186398    0.000000    0.000000    0.000000
H    -1.882973    1.378347   -0.056429    0.000000    0.000000    0.000000
H     2.328081    0.939334   -0.129643    0.000000    0.000000    0.000000
12
* Frequency(5)    0.0000
C     1.326706    0.515754   -0.072626    0.000000    0.000000    0.000000
C     1.114284   -0.816584    0.032594    0.000000    0.000000    0.000000
N    -0.151041   -1.347120    0.103530    0.000000    0.000000    0.000000
C    -1.315628   -0.577682    0.076752    0.000000    0.000000    0.000000
N    -1.060936    0.779065   -0.032267    0.000000    0.000000    0.000000
C     0.187706    1.435734   -0.112929    0.000000    0.000000    0.000000
O    -2.423226   -1.063291    0.142349    0.000000    0.000000    0.000000
O     0.244598    2.644464   -0.204665    0.000000    0.000000    0.000000
H     1.931646   -1.540867    0.066907    0.000000    0.000000    0.000000
H    -0.299216   -2.347153    0.186398    0.000000    0.000000    0.000000
H    -1.882973    1.378347   -0.056429    0.000000    0.000000    0.000000
H     2.328081    0.939334   -0.129643    0.000000    0.000000    0.000000
12
* Frequency(5)    0.0000
C     1.326706    0.515754   -0.072626    0.000000    0.000000    0.000000
C     1.114284   -0.816584    0.032594    0.000000    0.000000    0.000000
N    -0.151041   -1.347120    0.103530    0.000000    0.000000    0.000000
C    -1.315628   -0.577682    0.076752    0.000000    0.000000    0.000000
N    -1.060936    0.779065   -0.032267    0.000000    0.000000    0.000000
C     0.187706    1.435734   -0.112929    0.000000    0.000000    0.000000
O    -2.423226   -1.063291    0.142349    0.000000    0.000000    0.000000
O     0.244598    2.644464   -0.204665    0.000000    0.000000    0.000000
H     1.931646   -1.540867    0.066907    0.000000    0.000000    0.000000
H    -0.299216   -2.347153    0.186398    0.000000    0.000000    0.000000
H    -1.882973    1.378347   -0.056429    0.000000    0.000000    0.000000
H     2.328081    0.939334   -0.129643    0.000000    0.000000    0.000000
12
* Frequency(5)    0.0000
C     1.326706    0.515754   -0.072626    0.000000    0.000000    0.000000
C     1.114284   -0.816584    0.032594    0.000000    0.000000    0.000000
N    -0.151041   -1.347120    0.103530    0.000000    0.000000    0.000000
C    -1.315628   -0.577682    0.076752    0.000000    0.000000    0.000000
N    -1.060936    0.779065   -0.032267    0.000000    0.000000    0.000000
C     0.187706    1.435734   -0.112929    0.000000    0.000000    0.000000
O    -2.423226   -1.063291    0.142349    0.000000    0.000000    0.000000
O     0.244598    2.644464   -0.204665    0.000000    0.000000    0.000000
H     1.931646   -1.540867    0.066907    0.000000    0.000000    0.000000
H    -0.299216   -2.347153    0.186398    0.000000    0.000000    0.000000
H    -1.882973    1.378347   -0.056429    0.000000    0.000000    0.000000
H     2.328081    0.939334   -0.129643    0.000000    0.000000    0.000000
12
* Frequency(5)    0.0000
C     1.326706    0.515754   -0.072626    0.000000    0.000000    0.000000
C     1.114284   -0.816584    0.032594    0.000000    0.000000    0.000000
N    -0.151041   -1.347120    0.103530    0.000000    0.000000    0.000000
C    -1.315628   -0.577682    0.076752    0.000000    0.000000    0.000000
N    -1.060936    0.779065   -0.032267    0.000000    0.000000    0.000000
C     0.187706    1.435734   -0.112929    0.000000    0.000000    0.000000
O    -2.423226   -1.063291    0.142349    0.000000    0.000000    0.000000
O     0.244598    2.644464   -0.204665    0.000000    0.000000    0.000000
H     1.931646   -1.540867    0.066907    0.000000    0.000000    0.000000
H    -0.299216   -2.347153    0.186398    0.000000    0.000000    0.000000
H    -1.882973    1.378347   -0.056429    0.000000    0.000000    0.000000
H     2.328081    0.939334   -0.129643    0.000000    0.000000    0.000000
12
* Frequency(5)    0.0000
C     1.326706    0.515754   -0.072626    0.000000    0.000000    0.000000
C     1.114284   -0.816584    0.032594    0.000000    0.000000    0.000000
N    -0.151041   -1.347120    0.103530    0.000000    0.000000    0.000000
C    -1.315628   -0.577682    0.076752    0.000000    0.000000    0.000000
N    -1.060936    0.779065   -0.032267    0.000000    0.000000    0.000000
C     0.187706    1.435734   -0.112929    0.000000    0.000000    0.000000
O    -2.423226   -1.063291    0.142349    0.000000    0.000000    0.000000
O     0.244598    2.644464   -0.204665    0.000000    0.000000    0.000000
H     1.931646   -1.540867    0.066907    0.000000    0.000000    0.000000
H    -0.299216   -2.347153    0.186398    0.000000    0.000000    0.000000
H    -1.882973    1.378347   -0.056429    0.000000    0.000000    0.000000
H     2.328081    0.939334   -0.129643    0.000000    0.000000    0.000000
12
* Frequency(5)    0.0000
C     1.326706    0.515754   -0.072626    0.000000    0.000000    0.000000
C     1.114284   -0.816584    0.032594    0.000000    0.000000    0.000000
N    -0.151041   -1.347120    0.103530    0.000000    0.000000    0.000000
C    -1.315628   -0.577682    0.076752    0.000000    0.000000    0.000000
N    -1.060936    0.779065   -0.032267    0.000000    0.000000    0.000000
C     0.187706    1.435734   -0.112929    0.000000    0.000000    0.000000
O    -2.423226   -1.063291    0.142349    0.000000    0.000000    0.000000
O     0.244598    2.644464   -0.204665    0.000000    0.000000    0.000000
H     1.931646   -1.540867    0.066907    0.000000    0.000000    0.000000
H    -0.299216   -2.347153    0.186398    0.000000    0.000000    0.000000
H    -1.882973    1.378347   -0.056429    0.000000    0.000000    0.000000
H     2.328081    0.939334   -0.129643    0.000000    0.000000    0.000000
12
* Frequency(5)    0.0000
C     1.326706    0.515754   -0.072626    0.000000    0.000000    0.000000
C     1.114284   -0.816584    0.032594    0.000000    0.000000    0.000000
N    -0.151041   -1.347120    0.103530    0.000000    0.000000    0.000000
C    -1.315628   -0.577682    0.076752    0.000000    0.000000    0.000000
N    -1.060936    0.779065   -0.032267    0.000000    0.000000    0.000000
C     0.187706    1.435734   -0.112929    0.000000    0.000000    0.000000
O    -2.423226   -1.063291    0.142349    0.000000    0.000000    0.000000
O     0.244598    2.644464   -0.204665    0.000000    0.000000    0.000000
H     1.931646   -1.540867    0.066907    0.000000    0.000000    0.000000
H    -0.299216   -2.347153    0.186398    0.000000    0.000000    0.000000
H    -1.882973    1.378347   -0.056429    0.000000    0.000000    0.000000
H     2.328081    0.939334   -0.129643    0.000000    0.000000    0.000000
12
* Frequency(5)    0.0000
C     1.326706    0.515754   -0.072626    0.000000    0.000000    0.000000
C     1.114284   -0.816584    0.032594    0.000000    0.000000    0.000000
N    -0.151041   -1.347120    0.103530    0.000000    0.000000    0.000000
C    -1.315628   -0.577682    0.076752    0.000000    0.000000    0.000000
N    -1.060936    0.779065   -0.032267    0.000000    0.000000    0.000000
C     0.187706    1.435734   -0.112929    0.000000    0.000000    0.000000
O    -2.423226   -1.063291    0.142349    0.000000    0.000000    0.000000
O     0.244598    2.644464   -0.204665    0.000000    0.000000    0.000000
H     1.931646   -1.540867    0.066907    0.000000    0.000000    0.000000
H    -0.299216   -2.347153    0.186398    0.000000    0.000000    0.000000
H    -1.882973    1.378347   -0.056429    0.000000    0.000000    0.000000
H     2.328081    0.939334   -0.129643    0.000000    0.000000    0.000000
12
* Frequency(5)    0.0000
C     1.326706    0.515754   -0.072626    0.000000    0.000000    0.000000
C     1.114284   -0.816584    0.032594    0.000000    0.000000    0.000000
N    -0.151041   -1.347120    0.103530    0.000000    0.000000    0.000000
C    -1.315628   -0.577682    0.076752    0.000000    0.000000    0.000000
N    -1.060936    0.779065   -0.032267    0.000000    0.000000    0.000000
C     0.187706    1.435734   -0.112929    0.000000    0.000000    0.000000
O    -2.423226   -1.063291    0.142349    0.000000    0.000000    0.000000
O     0.244598    2.644464   -0.204665    0.000000    0.000000    0.000000
H     1.931646   -1.540867    0.066907    0.000000    0.000000    0.000000
H    -0.299216   -2.347153    0.186398    0.000000    0.000000    0.000000
H    -1.882973    1.378347   -0.056429    0.000000    0.000000    0.000000
H     2.328081    0.939334   -0.129643    0.000000    0.000000    0.000000
12
* Frequency(5)    0.0000
C     1.326706    0.515754   -0.072626    0.000000    0.000000    0.000000
C     1.114284   -0.816584    0.032594    0.000000    0.000000    0.000000
N    -0.151041   -1.347120    0.103530    0.000000    0.000000    0.000000
C    -1.315628   -0.577682    0.076752    0.000000    0.000000    0.000000
N    -1.060936    0.779065   -0.032267    0.000000    0.000000    0.000000
C     0.187706    1.435734   -0.112929    0.000000    0.000000    0.000000
O    -2.423226   -1.063291    0.142349    0.000000    0.000000    0.000000
O     0.244598    2.644464   -0.204665    0.000000    0.000000    0.000000
H     1.931646   -1.540867    0.066907    0.000000    0.000000    0.000000
H    -0.299216   -2.347153    0.186398    0.000000    0.000000    0.000000
H    -1.882973    1.378347   -0.056429    0.000000    0.000000    0.000000
H     2.328081    0.939334   -0.129643    0.000000    0.000000    0.000000
12
* Frequency(5)    0.0000
C     1.326706    0.515754   -0.072626    0.000000    0.000000    0.000000
C     1.114284   -0.816584    0.032594    0.000000    0.000000    0.000000
N    -0.151041   -1.347120    0.103530    0.000000    0.000000    0.000000
C    -1.315628   -0.577682    0.076752    0.000000    0.000000    0.000000
N    -1.060936    0.779065   -0.032267    0.000000    0.000000    0.000000
C     0.187706    1.435734   -0.112929    0.000000    0.000000    0.000000
O    -2.423226   -1.063291    0.142349    0.000000    0.000000    0.000000
O     0.244598    2.644464   -0.204665    0.000000    0.000000    0.000000
H     1.931646   -1.540867    0.066907    0.000000    0.000000    0.000000
H    -0.299216   -2.347153    0.186398    0.000000    0.000000    0.000000
H    -1.882973    1.378347   -0.056429    0.000000    0.000000    0.000000
H     2.328081    0.939334   -0.129643    0.000000    0.000000    0.000000
12
* Frequency(5)    0.0000
C     1.326706    0.515754   -0.072626    0.000000    0.000000    0.000000
C     1.114284   -0.816584    0.032594    0.000000    0.000000    0.000000
N    -0.151041   -1.347120    0.103530    0.000000    0.000000    0.000000
C    -1.315628   -0.577682    0.076752    0.000000    0.000000    0.000000
N    -1.060936    0.779065   -0.032267    0.000000    0.000000    0.000000
C     0.187706    1.435734   -0.112929    0.000000    0.000000    0.000000
O    -2.423226   -1.063291    0.142349    0.000000    0.000000    0.000000
O     0.244598    2.644464   -0.204665    0.000000    0.000000    0.000000
H     1.931646   -1.540867    0.066907    0.000000    0.000000    0.000000
H    -0.299216   -2.347153    0.186398    0.000000    0.000000    0.000000
H    -1.882973    1.378347   -0.056429    0.000000    0.000000    0.000000
H     2.328081    0.939334   -0.129643    0.000000    0.000000    0.000000
12
* Frequency(5)    0.0000
C     1.326706    0.515754   -0.072626    0.000000    0.000000    0.000000
C     1.114284   -0.816584    0.032594    0.000000    0.000000    0.000000
N    -0.151041   -1.347120    0.103530    0.000000    0.000000    0.000000
C    -1.315628   -0.577682    0.076752    0.000000    0.000000    0.000000
N    -1.060936    0.779065   -0.032267    0.000000    0.000000    0.000000
C     0.187706    1.435734   -0.112929    0.000000    0.000000    0.000000
O    -2.423226   -1.063291    0.142349    0.000000    0.000000    0.000000
O     0.244598    2.644464   -0.204665    0.000000    0.000000    0.000000
H     1.931646   -1.540867    0.066907    0.000000    0.000000    0.000000
H    -0.299216   -2.347153    0.186398    0.000000    0.000000    0.000000
H    -1.882973    1.378347   -0.056429    0.000000    0.000000    0.000000
H     2.328081    0.939334   -0.129643    0.000000    0.000000    0.000000
12
* Frequency(5)    0.0000
C     1.326706    0.515754   -0.072626    0.000000    0.000000    0.000000
C     1.114284   -0.816584    0.032594    0.000000    0.000000    0.000000
N    -0.151041   -1.347120    0.103530    0.000000    0.000000    0.000000
C    -1.315628   -0.577682    0.076752    0.000000    0.000000    0.000000
N    -1.060936    0.779065   -0.032267    0.000000    0.000000    0.000000
C     0.187706    1.435734   -0.112929    0.000000    0.000000    0.000000
O    -2.423226   -1.063291    0.142349    0.000000    0.000000    0.000000
O     0.244598    2.644464   -0.204665    0.000000    0.000000    0.000000
H     1.931646   -1.540867    0.066907    0.000000    0.000000    0.000000
H    -0.299216   -2.347153    0.186398    0.000000    0.000000    0.000000
H    -1.882973    1.378347   -0.056429    0.000000    0.000000    0.000000
H     2.328081    0.939334   -0.129643    0.000000    0.000000    0.000000
12
* Frequency(5)    0.0000
C     1.326706    0.515754   -0.072626    0.000000    0.000000    0.000000
C     1.114284   -0.816584    0.032594    0.000000    0.000000    0.000000
N    -0.151041   -1.347120    0.103530    0.000000    0.000000    0.000000
C    -1.315628   -0.577682    0.076752    0.000000    0.000000    0.000000
N    -1.060936    0.779065   -0.032267    0.000000    0.000000    0.000000
C     0.187706    1.435734   -0.112929    0.000000    0.000000    0.000000
O    -2.423226   -1.063291    0.142349    0.000000    0.000000    0.000000
O     0.244598    2.644464   -0.204665    0.000000    0.000000    0.000000
H     1.931646   -1.540867    0.066907    0.000000    0.000000    0.000000
H    -0.299216   -2.347153    0.186398    0.000000    0.000000    0.000000
H    -1.882973    1.378347   -0.056429    0.000000    0.000000    0.000000
H     2.328081    0.939334   -0.129643    0.000000    0.000000    0.000000
12
* Frequency(5)    0.0000
C     1.326706    0.515754   -0.072626    0.000000    0.000000    0.000000
C     1.114284   -0.816584    0.032594    0.000000    0.000000    0.000000
N    -0.151041   -1.347120    0.103530    0.000000    0.000000    0.000000
C    -1.315628   -0.577682    0.076752    0.000000    0.000000    0.000000
N    -1.060936    0.779065   -0.032267    0.000000    0.000000    0.000000
C     0.187706    1.435734   -0.112929    0.000000    0.000000    0.000000
O    -2.423226   -1.063291    0.142349    0.000000    0.000000    0.000000
O     0.244598    2.644464   -0.204665    0.000000    0.000000    0.000000
H     1.931646   -1.540867    0.066907    0.000000    0.000000    0.000000
H    -0.299216   -2.347153    0.186398    0.000000    0.000000    0.000000
H    -1.882973    1.378347   -0.056429    0.000000    0.000000    0.000000
H     2.328081    0.939334   -0.129643    0.000000    0.000000    0.000000
