12
* (null), Energy   -1000.0000000
C     1.629965    0.315610   -0.065301   -0.000853    0.000432   -0.000011
C     1.417359   -1.016714    0.040627    0.000085    0.000439   -0.000036
N     0.152106   -1.547217    0.113051   -0.001214    0.000194    0.000015
C    -1.012934   -0.778188    0.084369    0.000377    0.002236   -0.000174
N    -0.757957    0.578797   -0.024165    0.117880   -0.087510    0.003603
C     0.490659    1.235340   -0.105671   -0.001344   -0.000622    0.000082
O    -2.120393   -1.263598    0.148925    0.000414    0.000023   -0.000012
O     0.547838    2.444022   -0.198224    0.000164   -0.000303    0.000020
H     2.234675   -1.741152    0.074482    0.000941   -0.000830    0.000041
H     0.004476   -2.547394    0.191756    0.000842    0.012850   -0.000983
H    -1.579890    1.178069   -0.048486   -1.610042    1.176320   -0.047838
H     2.631499    0.738614   -0.122607   -0.001417   -0.000173    0.000051
12
* Frequency(34) 3594.9645
C     1.629868    0.315659   -0.065302   -0.000853    0.000432   -0.000011
C     1.417369   -1.016664    0.040623    0.000085    0.000439   -0.000036
N     0.151968   -1.547195    0.113053   -0.001214    0.000194    0.000015
C    -1.012891   -0.777934    0.084350    0.000377    0.002236   -0.000174
N    -0.744560    0.568852   -0.023755    0.117880   -0.087510    0.003603
C     0.490506    1.235269   -0.105661   -0.001344   -0.000622    0.000082
O    -2.120346   -1.263595    0.148923    0.000414    0.000023   -0.000012
O     0.547857    2.443988   -0.198221    0.000164   -0.000303    0.000020
H     2.234782   -1.741246    0.074486    0.000941   -0.000830    0.000041
H     0.004572   -2.545934    0.191644    0.000842    0.012850   -0.000983
H    -1.762863    1.311751   -0.053922   -1.610042    1.176320   -0.047838
H     2.631338    0.738595   -0.122601   -0.001417   -0.000173    0.000051
12
* Frequency(34) 3594.9645
C     1.629782    0.315703   -0.065303   -0.000853    0.000432   -0.000011
C     1.417377   -1.016620    0.040619    0.000085    0.000439   -0.000036
N     0.151845   -1.547175    0.113055   -0.001214    0.000194    0.000015
C    -1.012853   -0.777707    0.084332    0.000377    0.002236   -0.000174
N    -0.732616    0.559984   -0.023390    0.117880   -0.087510    0.003603
C     0.490370    1.235206   -0.105653   -0.001344   -0.000622    0.000082
O    -2.120304   -1.263593    0.148922    0.000414    0.000023   -0.000012
O     0.547874    2.443957   -0.198219    0.000164   -0.000303    0.000020
H     2.234877   -1.741330    0.074490    0.000941   -0.000830    0.000041
H     0.004657   -2.544632    0.191544    0.000842    0.012850   -0.000983
H    -1.926008    1.430947   -0.058769   -1.610042    1.176320   -0.047838
H     2.631195    0.738577   -0.122596   -0.001417   -0.000173    0.000051
12
* Frequency(34) 3594.9645
C     1.629715    0.315737   -0.065304   -0.000853    0.000432   -0.000011
C     1.417384   -1.016586    0.040617    0.000085    0.000439   -0.000036
N     0.151751   -1.547160    0.113056   -0.001214    0.000194    0.000015
C    -1.012824   -0.777532    0.084318    0.000377    0.002236   -0.000174
N    -0.723417    0.553156   -0.023109    0.117880   -0.087510    0.003603
C     0.490265    1.235158   -0.105647   -0.001344   -0.000622    0.000082
O    -2.120271   -1.263591    0.148921    0.000414    0.000023   -0.000012
O     0.547886    2.443933   -0.198218    0.000164   -0.000303    0.000020
H     2.234951   -1.741395    0.074493    0.000941   -0.000830    0.000041
H     0.004723   -2.543629    0.191468    0.000842    0.012850   -0.000983
H    -2.051645    1.522740   -0.062502   -1.610042    1.176320   -0.047838
H     2.631084    0.738564   -0.122592   -0.001417   -0.000173    0.000051
12
* Frequency(34) 3594.9645
C     1.629676    0.315757   -0.065305   -0.000853    0.000432   -0.000011
C     1.417388   -1.016565    0.040615    0.000085    0.000439   -0.000036
N     0.151694   -1.547151    0.113056   -0.001214    0.000194    0.000015
C    -1.012806   -0.777429    0.084310    0.000377    0.002236   -0.000174
N    -0.717961    0.549106   -0.022942    0.117880   -0.087510    0.003603
C     0.490203    1.235129   -0.105643   -0.001344   -0.000622    0.000082
O    -2.120252   -1.263590    0.148921    0.000414    0.000023   -0.000012
O     0.547894    2.443919   -0.198217    0.000164   -0.000303    0.000020
H     2.234994   -1.741433    0.074495    0.000941   -0.000830    0.000041
H     0.004762   -2.543035    0.191422    0.000842    0.012850   -0.000983
H    -2.126161    1.577182   -0.064717   -1.610042    1.176320   -0.047838
H     2.631018    0.738556   -0.122590   -0.001417   -0.000173    0.000051
12
* Frequency(34) 3594.9645
C     1.629668    0.315761   -0.065305   -0.000853    0.000432   -0.000011
C     1.417389   -1.016561    0.040615    0.000085    0.000439   -0.000036
N     0.151683   -1.547149    0.113057   -0.001214    0.000194    0.000015
C    -1.012803   -0.777408    0.084309    0.000377    0.002236   -0.000174
N    -0.716840    0.548273   -0.022908    0.117880   -0.087510    0.003603
C     0.490190    1.235123   -0.105642   -0.001344   -0.000622    0.000082
O    -2.120248   -1.263590    0.148921    0.000414    0.000023   -0.000012
O     0.547896    2.443916   -0.198217    0.000164   -0.000303    0.000020
H     2.235003   -1.741441    0.074496    0.000941   -0.000830    0.000041
H     0.004770   -2.542912    0.191413    0.000842    0.012850   -0.000983
H    -2.141480    1.588374   -0.065172   -1.610042    1.176320   -0.047838
H     2.631005    0.738554   -0.122590   -0.001417   -0.000173    0.000051
12
* Frequency(34) 3594.9645
C     1.629692    0.315748   -0.065305   -0.000853    0.000432   -0.000011
C     1.417386   -1.016574    0.040616    0.000085    0.000439   -0.000036
N     0.151717   -1.547155    0.113056   -0.001214    0.000194    0.000015
C    -1.012813   -0.777471    0.084313    0.000377    0.002236   -0.000174
N    -0.720174    0.550748   -0.023010    0.117880   -0.087510    0.003603
C     0.490228    1.235141   -0.105644   -0.001344   -0.000622    0.000082
O    -2.120260   -1.263590    0.148921    0.000414    0.000023   -0.000012
O     0.547891    2.443925   -0.198217    0.000164   -0.000303    0.000020
H     2.234976   -1.741418    0.074495    0.000941   -0.000830    0.000041
H     0.004746   -2.543276    0.191441    0.000842    0.012850   -0.000983
H    -2.095942    1.555103   -0.063819   -1.610042    1.176320   -0.047838
H     2.631045    0.738559   -0.122591   -0.001417   -0.000173    0.000051
12
* Frequency(34) 3594.9645
C     1.629745    0.315721   -0.065304   -0.000853    0.000432   -0.000011
C     1.417381   -1.016601    0.040618    0.000085    0.000439   -0.000036
N     0.151794   -1.547167    0.113055   -0.001214    0.000194    0.000015
C    -1.012837   -0.777612    0.084324    0.000377    0.002236   -0.000174
N    -0.727602    0.556263   -0.023237    0.117880   -0.087510    0.003603
C     0.490312    1.235180   -0.105650   -0.001344   -0.000622    0.000082
O    -2.120286   -1.263592    0.148922    0.000414    0.000023   -0.000012
O     0.547881    2.443944   -0.198219    0.000164   -0.000303    0.000020
H     2.234917   -1.741365    0.074492    0.000941   -0.000830    0.000041
H     0.004693   -2.544085    0.191503    0.000842    0.012850   -0.000983
H    -1.994481    1.480975   -0.060804   -1.610042    1.176320   -0.047838
H     2.631134    0.738570   -0.122594   -0.001417   -0.000173    0.000051
12
* Frequency(34) 3594.9645
C     1.629823    0.315682   -0.065303   -0.000853    0.000432   -0.000011
C     1.417373   -1.016641    0.040621    0.000085    0.000439   -0.000036
N     0.151904   -1.547185    0.113054   -0.001214    0.000194    0.000015
C    -1.012871   -0.777815    0.084340    0.000377    0.002236   -0.000174
N    -0.738320    0.564219   -0.023565    0.117880   -0.087510    0.003603
C     0.490435    1.235236   -0.105657   -0.001344   -0.000622    0.000082
O    -2.120324   -1.263594    0.148923    0.000414    0.000023   -0.000012
O     0.547866    2.443971   -0.198220    0.000164   -0.000303    0.000020
H     2.234832   -1.741290    0.074488    0.000941   -0.000830    0.000041
H     0.004617   -2.545254    0.191592    0.000842    0.012850   -0.000983
H    -1.848093    1.374022   -0.056454   -1.610042    1.176320   -0.047838
H     2.631263    0.738585   -0.122599   -0.001417   -0.000173    0.000051
12
* Frequency(34) 3594.9645
C     1.629916    0.315635   -0.065302   -0.000853    0.000432   -0.000011
C     1.417364   -1.016689    0.040625    0.000085    0.000439   -0.000036
N     0.152036   -1.547206    0.113052   -0.001214    0.000194    0.000015
C    -1.012912   -0.778059    0.084359    0.000377    0.002236   -0.000174
N    -0.751166    0.573756   -0.023957    0.117880   -0.087510    0.003603
C     0.490581    1.235304   -0.105666   -0.001344   -0.000622    0.000082
O    -2.120369   -1.263596    0.148924    0.000414    0.000023   -0.000012
O     0.547848    2.444005   -0.198222    0.000164   -0.000303    0.000020
H     2.234729   -1.741199    0.074484    0.000941   -0.000830    0.000041
H     0.004525   -2.546654    0.191699    0.000842    0.012850   -0.000983
H    -1.672641    1.245834   -0.051241   -1.610042    1.176320   -0.047838
H     2.631418    0.738604   -0.122604   -0.001417   -0.000173    0.000051
12
* Frequency(34) 3594.9645
C     1.630014    0.315585   -0.065300   -0.000853    0.000432   -0.000011
C     1.417354   -1.016740    0.040629    0.000085    0.000439   -0.000036
N     0.152176   -1.547228    0.113051   -0.001214    0.000194    0.000015
C    -1.012956   -0.778317    0.084379    0.000377    0.002236   -0.000174
N    -0.764748    0.583838   -0.024372    0.117880   -0.087510    0.003603
C     0.490736    1.235376   -0.105676   -0.001344   -0.000622    0.000082
O    -2.120417   -1.263599    0.148925    0.000414    0.000023   -0.000012
O     0.547829    2.444040   -0.198225    0.000164   -0.000303    0.000020
H     2.234621   -1.741104    0.074479    0.000941   -0.000830    0.000041
H     0.004428   -2.548135    0.191812    0.000842    0.012850   -0.000983
H    -1.487138    1.110303   -0.045730   -1.610042    1.176320   -0.047838
H     2.631581    0.738624   -0.122610   -0.001417   -0.000173    0.000051
12
* Frequency(34) 3594.9645
C     1.630107    0.315538   -0.065299   -0.000853    0.000432   -0.000011
C     1.417345   -1.016787    0.040633    0.000085    0.000439   -0.000036
N     0.152308   -1.547249    0.113049   -0.001214    0.000194    0.000015
C    -1.012997   -0.778560    0.084398    0.000377    0.002236   -0.000174
N    -0.777593    0.593374   -0.024765    0.117880   -0.087510    0.003603
C     0.490883    1.235443   -0.105685   -0.001344   -0.000622    0.000082
O    -2.120462   -1.263602    0.148927    0.000414    0.000023   -0.000012
O     0.547811    2.444073   -0.198227    0.000164   -0.000303    0.000020
H     2.234518   -1.741013    0.074475    0.000941   -0.000830    0.000041
H     0.004336   -2.549535    0.191920    0.000842    0.012850   -0.000983
H    -1.311686    0.982115   -0.040517   -1.610042    1.176320   -0.047838
H     2.631735    0.738643   -0.122616   -0.001417   -0.000173    0.000051
12
* Frequency(34) 3594.9645
C     1.630185    0.315499   -0.065298   -0.000853    0.000432   -0.000011
C     1.417337   -1.016827    0.040636    0.000085    0.000439   -0.000036
N     0.152419   -1.547267    0.113048   -0.001214    0.000194    0.000015
C    -1.013031   -0.778764    0.084414    0.000377    0.002236   -0.000174
N    -0.788311    0.601331   -0.025092    0.117880   -0.087510    0.003603
C     0.491005    1.235500   -0.105692   -0.001344   -0.000622    0.000082
O    -2.120499   -1.263604    0.148928    0.000414    0.000023   -0.000012
O     0.547796    2.444100   -0.198229    0.000164   -0.000303    0.000020
H     2.234433   -1.740938    0.074471    0.000941   -0.000830    0.000041
H     0.004260   -2.550703    0.192009    0.000842    0.012850   -0.000983
H    -1.165298    0.875162   -0.036167   -1.610042    1.176320   -0.047838
H     2.631864    0.738659   -0.122620   -0.001417   -0.000173    0.000051
12
* Frequency(34) 3594.9645
C     1.630238    0.315472   -0.065297   -0.000853    0.000432   -0.000011
C     1.417332   -1.016855    0.040639    0.000085    0.000439   -0.000036
N     0.152495   -1.547279    0.113047   -0.001214    0.000194    0.000015
C    -1.013055   -0.778905    0.084425    0.000377    0.002236   -0.000174
N    -0.795740    0.606846   -0.025319    0.117880   -0.087510    0.003603
C     0.491089    1.235539   -0.105697   -0.001344   -0.000622    0.000082
O    -2.120525   -1.263605    0.148929    0.000414    0.000023   -0.000012
O     0.547786    2.444119   -0.198230    0.000164   -0.000303    0.000020
H     2.234373   -1.740886    0.074469    0.000941   -0.000830    0.000041
H     0.004207   -2.551513    0.192071    0.000842    0.012850   -0.000983
H    -1.063838    0.801034   -0.033152   -1.610042    1.176320   -0.047838
H     2.631953    0.738670   -0.122623   -0.001417   -0.000173    0.000051
12
* Frequency(34) 3594.9645
C     1.630262    0.315459   -0.065297   -0.000853    0.000432   -0.000011
C     1.417329   -1.016867    0.040640    0.000085    0.000439   -0.000036
N     0.152530   -1.547284    0.113046   -0.001214    0.000194    0.000015
C    -1.013066   -0.778968    0.084430    0.000377    0.002236   -0.000174
N    -0.799074    0.609321   -0.025421    0.117880   -0.087510    0.003603
C     0.491127    1.235557   -0.105700   -0.001344   -0.000622    0.000082
O    -2.120537   -1.263606    0.148929    0.000414    0.000023   -0.000012
O     0.547781    2.444128   -0.198230    0.000164   -0.000303    0.000020
H     2.234347   -1.740862    0.074467    0.000941   -0.000830    0.000041
H     0.004183   -2.551876    0.192099    0.000842    0.012850   -0.000983
H    -1.018300    0.767763   -0.031799   -1.610042    1.176320   -0.047838
H     2.631993    0.738674   -0.122625   -0.001417   -0.000173    0.000051
12
* Frequency(34) 3594.9645
C     1.630254    0.315463   -0.065297   -0.000853    0.000432   -0.000011
C     1.417330   -1.016863    0.040639    0.000085    0.000439   -0.000036
N     0.152518   -1.547283    0.113046   -0.001214    0.000194    0.000015
C    -1.013062   -0.778947    0.084429    0.000377    0.002236   -0.000174
N    -0.797952    0.608488   -0.025387    0.117880   -0.087510    0.003603
C     0.491115    1.235551   -0.105699   -0.001344   -0.000622    0.000082
O    -2.120533   -1.263606    0.148929    0.000414    0.000023   -0.000012
O     0.547783    2.444125   -0.198230    0.000164   -0.000303    0.000020
H     2.234356   -1.740870    0.074468    0.000941   -0.000830    0.000041
H     0.004191   -2.551754    0.192089    0.000842    0.012850   -0.000983
H    -1.033618    0.778955   -0.032255   -1.610042    1.176320   -0.047838
H     2.631980    0.738673   -0.122624   -0.001417   -0.000173    0.000051
12
* Frequency(34) 3594.9645
C     1.630215    0.315483   -0.065298   -0.000853    0.000432   -0.000011
C     1.417334   -1.016843    0.040638    0.000085    0.000439   -0.000036
N     0.152462   -1.547274    0.113047   -0.001214    0.000194    0.000015
C    -1.013045   -0.778843    0.084420    0.000377    0.002236   -0.000174
N    -0.792496    0.604438   -0.025220    0.117880   -0.087510    0.003603
C     0.491052    1.235522   -0.105695   -0.001344   -0.000622    0.000082
O    -2.120514   -1.263605    0.148928    0.000414    0.000023   -0.000012
O     0.547790    2.444111   -0.198229    0.000164   -0.000303    0.000020
H     2.234399   -1.740909    0.074470    0.000941   -0.000830    0.000041
H     0.004230   -2.551159    0.192044    0.000842    0.012850   -0.000983
H    -1.108134    0.833397   -0.034469   -1.610042    1.176320   -0.047838
H     2.631914    0.738665   -0.122622   -0.001417   -0.000173    0.000051
12
* Frequency(34) 3594.9645
C     1.630148    0.315517   -0.065298   -0.000853    0.000432   -0.000011
C     1.417341   -1.016809    0.040635    0.000085    0.000439   -0.000036
N     0.152367   -1.547259    0.113048   -0.001214    0.000194    0.000015
C    -1.013015   -0.778669    0.084407    0.000377    0.002236   -0.000174
N    -0.783298    0.597609   -0.024939    0.117880   -0.087510    0.003603
C     0.490948    1.235474   -0.105689   -0.001344   -0.000622    0.000082
O    -2.120482   -1.263603    0.148927    0.000414    0.000023   -0.000012
O     0.547803    2.444087   -0.198228    0.000164   -0.000303    0.000020
H     2.234473   -1.740973    0.074473    0.000941   -0.000830    0.000041
H     0.004295   -2.550157    0.191967    0.000842    0.012850   -0.000983
H    -1.233772    0.925190   -0.038202   -1.610042    1.176320   -0.047838
H     2.631804    0.738651   -0.122618   -0.001417   -0.000173    0.000051
12
* Frequency(34) 3594.9645
C     1.630062    0.315561   -0.065300   -0.000853    0.000432   -0.000011
C     1.417349   -1.016764    0.040631    0.000085    0.000439   -0.000036
N     0.152244   -1.547239    0.113050   -0.001214    0.000194    0.000015
C    -1.012977   -0.778442    0.084389    0.000377    0.002236   -0.000174
N    -0.771353    0.588742   -0.024574    0.117880   -0.087510    0.003603
C     0.490811    1.235411   -0.105680   -0.001344   -0.000622    0.000082
O    -2.120440   -1.263600    0.148926    0.000414    0.000023   -0.000012
O     0.547820    2.444057   -0.198226    0.000164   -0.000303    0.000020
H     2.234568   -1.741057    0.074477    0.000941   -0.000830    0.000041
H     0.004381   -2.548855    0.191867    0.000842    0.012850   -0.000983
H    -1.396917    1.044386   -0.043049   -1.610042    1.176320   -0.047838
H     2.631660    0.738634   -0.122613   -0.001417   -0.000173    0.000051
12
* Frequency(34) 3594.9645
C     1.629965    0.315610   -0.065301   -0.000853    0.000432   -0.000011
C     1.417359   -1.016714    0.040627    0.000085    0.000439   -0.000036
N     0.152106   -1.547217    0.113051   -0.001214    0.000194    0.000015
C    -1.012934   -0.778188    0.084369    0.000377    0.002236   -0.000174
N    -0.757957    0.578797   -0.024165    0.117880   -0.087510    0.003603
C     0.490659    1.235340   -0.105671   -0.001344   -0.000622    0.000082
O    -2.120393   -1.263598    0.148925    0.000414    0.000023   -0.000012
O     0.547838    2.444022   -0.198224    0.000164   -0.000303    0.000020
H     2.234675   -1.741152    0.074482    0.000941   -0.000830    0.000041
H     0.004476   -2.547394    0.191756    0.000842    0.012850   -0.000983
H    -1.579890    1.178069   -0.048486   -1.610042    1.176320   -0.047838
H     2.631499    0.738614   -0.122607   -0.001417   -0.000173    0.000051
