12
* (null), Energy   -1000.0000000
C     1.629965    0.315610   -0.065301   -0.003200   -0.010241   -0.135337
C     1.417359   -1.016714    0.040627    0.002572    0.007545    0.100697
N     0.152106   -1.547217    0.113051   -0.002804   -0.007881   -0.105346
C    -1.012934   -0.778188    0.084369    0.003744    0.011189    0.148053
N    -0.757957    0.578797   -0.024165    0.002185    0.006631    0.087559
C     0.490659    1.235340   -0.105671    0.002977    0.008519    0.111851
O    -2.120393   -1.263598    0.148925   -0.000226   -0.000721   -0.007711
O     0.547838    2.444022   -0.198224   -0.000062    0.000117    0.000334
H     2.234675   -1.741152    0.074482    0.004639    0.013951    0.187902
H     0.004476   -2.547394    0.191756   -0.010600   -0.030475   -0.407110
H    -1.579890    1.178069   -0.048486   -0.049008   -0.144760   -1.912152
H     2.631499    0.738614   -0.122607   -0.004455   -0.014455   -0.188563
12
* Frequency(14)  699.2518
C     1.629601    0.314446   -0.080681   -0.003200   -0.010241   -0.135337
C     1.417651   -1.015857    0.052071    0.002572    0.007545    0.100697
N     0.151788   -1.548113    0.101079   -0.002804   -0.007881   -0.105346
C    -1.012509   -0.776916    0.101195    0.003744    0.011189    0.148053
N    -0.757708    0.579551   -0.014214    0.002185    0.006631    0.087559
C     0.490997    1.236308   -0.092960    0.002977    0.008519    0.111851
O    -2.120418   -1.263680    0.148048   -0.000226   -0.000721   -0.007711
O     0.547831    2.444035   -0.198186   -0.000062    0.000117    0.000334
H     2.235202   -1.739566    0.095836    0.004639    0.013951    0.187902
H     0.003272   -2.550858    0.145490   -0.010600   -0.030475   -0.407110
H    -1.585459    1.161617   -0.265792   -0.049008   -0.144760   -1.912152
H     2.630993    0.736972   -0.144036   -0.004455   -0.014455   -0.188563
12
* Frequency(14)  699.2518
C     1.629277    0.313408   -0.094395   -0.003200   -0.010241   -0.135337
C     1.417912   -1.015092    0.062274    0.002572    0.007545    0.100697
N     0.151503   -1.548911    0.090405   -0.002804   -0.007881   -0.105346
C    -1.012129   -0.775783    0.116197    0.003744    0.011189    0.148053
N    -0.757487    0.580223   -0.005342    0.002185    0.006631    0.087559
C     0.491299    1.237171   -0.081626    0.002977    0.008519    0.111851
O    -2.120441   -1.263753    0.147267   -0.000226   -0.000721   -0.007711
O     0.547825    2.444047   -0.198152   -0.000062    0.000117    0.000334
H     2.235672   -1.738153    0.114876    0.004639    0.013951    0.187902
H     0.002198   -2.553946    0.104237   -0.010600   -0.030475   -0.407110
H    -1.590425    1.146949   -0.459549   -0.049008   -0.144760   -1.912152
H     2.630541    0.735507   -0.163143   -0.004455   -0.014455   -0.188563
12
* Frequency(14)  699.2518
C     1.629027    0.312609   -0.104956   -0.003200   -0.010241   -0.135337
C     1.418113   -1.014504    0.070132    0.002572    0.007545    0.100697
N     0.151285   -1.549526    0.082184   -0.002804   -0.007881   -0.105346
C    -1.011837   -0.774909    0.127750    0.003744    0.011189    0.148053
N    -0.757316    0.580740    0.001491    0.002185    0.006631    0.087559
C     0.491531    1.237836   -0.072898    0.002977    0.008519    0.111851
O    -2.120459   -1.263809    0.146665   -0.000226   -0.000721   -0.007711
O     0.547820    2.444056   -0.198126   -0.000062    0.000117    0.000334
H     2.236034   -1.737064    0.129538    0.004639    0.013951    0.187902
H     0.001371   -2.556324    0.072469   -0.010600   -0.030475   -0.407110
H    -1.594250    1.135653   -0.608762   -0.049008   -0.144760   -1.912152
H     2.630194    0.734379   -0.177858   -0.004455   -0.014455   -0.188563
12
* Frequency(14)  699.2518
C     1.628879    0.312135   -0.111219   -0.003200   -0.010241   -0.135337
C     1.418232   -1.014154    0.074793    0.002572    0.007545    0.100697
N     0.151155   -1.549891    0.077309   -0.002804   -0.007881   -0.105346
C    -1.011664   -0.774392    0.134602    0.003744    0.011189    0.148053
N    -0.757215    0.581047    0.005543    0.002185    0.006631    0.087559
C     0.491669    1.238230   -0.067721    0.002977    0.008519    0.111851
O    -2.120469   -1.263843    0.146308   -0.000226   -0.000721   -0.007711
O     0.547817    2.444062   -0.198110   -0.000062    0.000117    0.000334
H     2.236249   -1.736418    0.138235    0.004639    0.013951    0.187902
H     0.000880   -2.557734    0.053627   -0.010600   -0.030475   -0.407110
H    -1.596518    1.128953   -0.697260   -0.049008   -0.144760   -1.912152
H     2.629988    0.733710   -0.186585   -0.004455   -0.014455   -0.188563
12
* Frequency(14)  699.2518
C     1.628849    0.312038   -0.112507   -0.003200   -0.010241   -0.135337
C     1.418256   -1.014083    0.075751    0.002572    0.007545    0.100697
N     0.151128   -1.549966    0.076306   -0.002804   -0.007881   -0.105346
C    -1.011628   -0.774285    0.136011    0.003744    0.011189    0.148053
N    -0.757195    0.581110    0.006376    0.002185    0.006631    0.087559
C     0.491697    1.238311   -0.066657    0.002977    0.008519    0.111851
O    -2.120472   -1.263849    0.146235   -0.000226   -0.000721   -0.007711
O     0.547817    2.444063   -0.198107   -0.000062    0.000117    0.000334
H     2.236293   -1.736286    0.140023    0.004639    0.013951    0.187902
H     0.000779   -2.558024    0.049754   -0.010600   -0.030475   -0.407110
H    -1.596984    1.127576   -0.715453   -0.049008   -0.144760   -1.912152
H     2.629945    0.733572   -0.188379   -0.004455   -0.014455   -0.188563
12
* Frequency(14)  699.2518
C     1.628939    0.312327   -0.108679   -0.003200   -0.010241   -0.135337
C     1.418184   -1.014296    0.072903    0.002572    0.007545    0.100697
N     0.151208   -1.549743    0.079286   -0.002804   -0.007881   -0.105346
C    -1.011734   -0.774602    0.131823    0.003744    0.011189    0.148053
N    -0.757256    0.580922    0.003900    0.002185    0.006631    0.087559
C     0.491613    1.238070   -0.069820    0.002977    0.008519    0.111851
O    -2.120465   -1.263829    0.146453   -0.000226   -0.000721   -0.007711
O     0.547819    2.444059   -0.198117   -0.000062    0.000117    0.000334
H     2.236162   -1.736680    0.134708    0.004639    0.013951    0.187902
H     0.001079   -2.557162    0.061268   -0.010600   -0.030475   -0.407110
H    -1.595598    1.131670   -0.661370   -0.049008   -0.144760   -1.912152
H     2.630071    0.733981   -0.183045   -0.004455   -0.014455   -0.188563
12
* Frequency(14)  699.2518
C     1.629141    0.312973   -0.100151   -0.003200   -0.010241   -0.135337
C     1.418021   -1.014771    0.066557    0.002572    0.007545    0.100697
N     0.151384   -1.549246    0.085924   -0.002804   -0.007881   -0.105346
C    -1.011970   -0.775307    0.122494    0.003744    0.011189    0.148053
N    -0.757394    0.580505   -0.001618    0.002185    0.006631    0.087559
C     0.491425    1.237533   -0.076869    0.002977    0.008519    0.111851
O    -2.120451   -1.263784    0.146939   -0.000226   -0.000721   -0.007711
O     0.547822    2.444052   -0.198138   -0.000062    0.000117    0.000334
H     2.235869   -1.737559    0.122867    0.004639    0.013951    0.187902
H     0.001747   -2.555242    0.086923   -0.010600   -0.030475   -0.407110
H    -1.592510    1.140792   -0.540871   -0.049008   -0.144760   -1.912152
H     2.630352    0.734892   -0.171163   -0.004455   -0.014455   -0.188563
12
* Frequency(14)  699.2518
C     1.629432    0.313904   -0.087846   -0.003200   -0.010241   -0.135337
C     1.417788   -1.015457    0.057401    0.002572    0.007545    0.100697
N     0.151639   -1.548530    0.095503   -0.002804   -0.007881   -0.105346
C    -1.012311   -0.776324    0.109032    0.003744    0.011189    0.148053
N    -0.757593    0.579902   -0.009579    0.002185    0.006631    0.087559
C     0.491154    1.236759   -0.087039    0.002977    0.008519    0.111851
O    -2.120430   -1.263718    0.147640   -0.000226   -0.000721   -0.007711
O     0.547828    2.444041   -0.198168   -0.000062    0.000117    0.000334
H     2.235448   -1.738828    0.105783    0.004639    0.013951    0.187902
H     0.002711   -2.552471    0.123939   -0.010600   -0.030475   -0.407110
H    -1.588054    1.153954   -0.367015   -0.049008   -0.144760   -1.912152
H     2.630757    0.736206   -0.154018   -0.004455   -0.014455   -0.188563
12
* Frequency(14)  699.2518
C     1.629781    0.315020   -0.073097   -0.003200   -0.010241   -0.135337
C     1.417507   -1.016280    0.046428    0.002572    0.007545    0.100697
N     0.151945   -1.547671    0.106983   -0.002804   -0.007881   -0.105346
C    -1.012719   -0.777543    0.092898    0.003744    0.011189    0.148053
N    -0.757831    0.579179   -0.019121    0.002185    0.006631    0.087559
C     0.490830    1.235831   -0.099227    0.002977    0.008519    0.111851
O    -2.120406   -1.263639    0.148481   -0.000226   -0.000721   -0.007711
O     0.547835    2.444029   -0.198204   -0.000062    0.000117    0.000334
H     2.234942   -1.740348    0.085306    0.004639    0.013951    0.187902
H     0.003866   -2.549150    0.168303   -0.010600   -0.030475   -0.407110
H    -1.582713    1.169729   -0.158641   -0.049008   -0.144760   -1.912152
H     2.631242    0.737782   -0.133470   -0.004455   -0.014455   -0.188563
12
* Frequency(14)  699.2518
C     1.630149    0.316200   -0.057504   -0.003200   -0.010241   -0.135337
C     1.417211   -1.017149    0.034826    0.002572    0.007545    0.100697
N     0.152268   -1.546763    0.119120   -0.002804   -0.007881   -0.105346
C    -1.013150   -0.778832    0.075840    0.003744    0.011189    0.148053
N    -0.758083    0.578415   -0.029209    0.002185    0.006631    0.087559
C     0.490487    1.234849   -0.112114    0.002977    0.008519    0.111851
O    -2.120380   -1.263556    0.149369   -0.000226   -0.000721   -0.007711
O     0.547842    2.444015   -0.198243   -0.000062    0.000117    0.000334
H     2.234408   -1.741955    0.063657    0.004639    0.013951    0.187902
H     0.005087   -2.545639    0.215209   -0.010600   -0.030475   -0.407110
H    -1.577066    1.186408    0.061670   -0.049008   -0.144760   -1.912152
H     2.631756    0.739447   -0.111744   -0.004455   -0.014455   -0.188563
12
* Frequency(14)  699.2518
C     1.630498    0.317316   -0.042756   -0.003200   -0.010241   -0.135337
C     1.416931   -1.017971    0.023853    0.002572    0.007545    0.100697
N     0.152573   -1.545904    0.130600   -0.002804   -0.007881   -0.105346
C    -1.013558   -0.780052    0.059706    0.003744    0.011189    0.148053
N    -0.758321    0.577692   -0.038751    0.002185    0.006631    0.087559
C     0.490163    1.233921   -0.124303    0.002977    0.008519    0.111851
O    -2.120355   -1.263478    0.150209   -0.000226   -0.000721   -0.007711
O     0.547849    2.444003   -0.198279   -0.000062    0.000117    0.000334
H     2.233902   -1.743476    0.043180    0.004639    0.013951    0.187902
H     0.006242   -2.542318    0.259573   -0.010600   -0.030475   -0.407110
H    -1.571726    1.202183    0.270044   -0.049008   -0.144760   -1.912152
H     2.632241    0.741022   -0.091196   -0.004455   -0.014455   -0.188563
12
* Frequency(14)  699.2518
C     1.630789    0.318247   -0.030451   -0.003200   -0.010241   -0.135337
C     1.416697   -1.018657    0.014697    0.002572    0.007545    0.100697
N     0.152828   -1.545188    0.140178   -0.002804   -0.007881   -0.105346
C    -1.013898   -0.781069    0.046245    0.003744    0.011189    0.148053
N    -0.758519    0.577089   -0.046712    0.002185    0.006631    0.087559
C     0.489892    1.233146   -0.134473    0.002977    0.008519    0.111851
O    -2.120334   -1.263412    0.150911   -0.000226   -0.000721   -0.007711
O     0.547854    2.443992   -0.198310   -0.000062    0.000117    0.000334
H     2.233480   -1.744744    0.026096    0.004639    0.013951    0.187902
H     0.007206   -2.539547    0.296588   -0.010600   -0.030475   -0.407110
H    -1.567270    1.215345    0.443900   -0.049008   -0.144760   -1.912152
H     2.632646    0.742336   -0.074052   -0.004455   -0.014455   -0.188563
12
* Frequency(14)  699.2518
C     1.630991    0.318892   -0.021923   -0.003200   -0.010241   -0.135337
C     1.416535   -1.019133    0.008352    0.002572    0.007545    0.100697
N     0.153005   -1.544691    0.146817   -0.002804   -0.007881   -0.105346
C    -1.014134   -0.781774    0.036915    0.003744    0.011189    0.148053
N    -0.758657    0.576671   -0.052229    0.002185    0.006631    0.087559
C     0.489705    1.232609   -0.141521    0.002977    0.008519    0.111851
O    -2.120320   -1.263367    0.151396   -0.000226   -0.000721   -0.007711
O     0.547858    2.443985   -0.198331   -0.000062    0.000117    0.000334
H     2.233188   -1.745623    0.014255    0.004639    0.013951    0.187902
H     0.007874   -2.537626    0.322243   -0.010600   -0.030475   -0.407110
H    -1.564182    1.224467    0.564399   -0.049008   -0.144760   -1.912152
H     2.632927    0.743247   -0.062169   -0.004455   -0.014455   -0.188563
12
* Frequency(14)  699.2518
C     1.631081    0.319182   -0.018095   -0.003200   -0.010241   -0.135337
C     1.416462   -1.019346    0.005503    0.002572    0.007545    0.100697
N     0.153084   -1.544468    0.149797   -0.002804   -0.007881   -0.105346
C    -1.014240   -0.782090    0.032728    0.003744    0.011189    0.148053
N    -0.758719    0.576484   -0.054706    0.002185    0.006631    0.087559
C     0.489620    1.232368   -0.144685    0.002977    0.008519    0.111851
O    -2.120314   -1.263346    0.151615   -0.000226   -0.000721   -0.007711
O     0.547860    2.443981   -0.198340   -0.000062    0.000117    0.000334
H     2.233057   -1.746018    0.008940    0.004639    0.013951    0.187902
H     0.008174   -2.536764    0.333758   -0.010600   -0.030475   -0.407110
H    -1.562795    1.228561    0.618482   -0.049008   -0.144760   -1.912152
H     2.633053    0.743656   -0.056836   -0.004455   -0.014455   -0.188563
12
* Frequency(14)  699.2518
C     1.631051    0.319085   -0.019382   -0.003200   -0.010241   -0.135337
C     1.416486   -1.019274    0.006461    0.002572    0.007545    0.100697
N     0.153057   -1.544543    0.148794   -0.002804   -0.007881   -0.105346
C    -1.014204   -0.781984    0.034136    0.003744    0.011189    0.148053
N    -0.758698    0.576547   -0.053873    0.002185    0.006631    0.087559
C     0.489649    1.232450   -0.143621    0.002977    0.008519    0.111851
O    -2.120316   -1.263353    0.151541   -0.000226   -0.000721   -0.007711
O     0.547860    2.443982   -0.198337   -0.000062    0.000117    0.000334
H     2.233101   -1.745885    0.010728    0.004639    0.013951    0.187902
H     0.008073   -2.537054    0.329884   -0.010600   -0.030475   -0.407110
H    -1.563262    1.227184    0.600289   -0.049008   -0.144760   -1.912152
H     2.633011    0.743519   -0.058630   -0.004455   -0.014455   -0.188563
12
* Frequency(14)  699.2518
C     1.630903    0.318611   -0.025646   -0.003200   -0.010241   -0.135337
C     1.416605   -1.018925    0.011122    0.002572    0.007545    0.100697
N     0.152928   -1.544908    0.143919   -0.002804   -0.007881   -0.105346
C    -1.014031   -0.781466    0.040989    0.003744    0.011189    0.148053
N    -0.758597    0.576854   -0.049820    0.002185    0.006631    0.087559
C     0.489786    1.232844   -0.138444    0.002977    0.008519    0.111851
O    -2.120326   -1.263386    0.151184   -0.000226   -0.000721   -0.007711
O     0.547857    2.443988   -0.198322   -0.000062    0.000117    0.000334
H     2.233316   -1.745239    0.019425    0.004639    0.013951    0.187902
H     0.007582   -2.538465    0.311042   -0.010600   -0.030475   -0.407110
H    -1.565530    1.220484    0.511791   -0.049008   -0.144760   -1.912152
H     2.632805    0.742850   -0.067357   -0.004455   -0.014455   -0.188563
12
* Frequency(14)  699.2518
C     1.630653    0.317812   -0.036207   -0.003200   -0.010241   -0.135337
C     1.416806   -1.018336    0.018980    0.002572    0.007545    0.100697
N     0.152709   -1.545523    0.135698   -0.002804   -0.007881   -0.105346
C    -1.013739   -0.780593    0.052542    0.003744    0.011189    0.148053
N    -0.758426    0.577371   -0.042988    0.002185    0.006631    0.087559
C     0.490019    1.233509   -0.129716    0.002977    0.008519    0.111851
O    -2.120344   -1.263443    0.150583   -0.000226   -0.000721   -0.007711
O     0.547852    2.443997   -0.198295   -0.000062    0.000117    0.000334
H     2.233678   -1.744151    0.034087    0.004639    0.013951    0.187902
H     0.006755   -2.540843    0.279274   -0.010600   -0.030475   -0.407110
H    -1.569354    1.209188    0.362578   -0.049008   -0.144760   -1.912152
H     2.632457    0.741722   -0.082071   -0.004455   -0.014455   -0.188563
12
* Frequency(14)  699.2518
C     1.630329    0.316774   -0.049921   -0.003200   -0.010241   -0.135337
C     1.417067   -1.017572    0.029183    0.002572    0.007545    0.100697
N     0.152425   -1.546321    0.125023   -0.002804   -0.007881   -0.105346
C    -1.013360   -0.779459    0.067544    0.003744    0.011189    0.148053
N    -0.758205    0.578043   -0.034115    0.002185    0.006631    0.087559
C     0.490320    1.234372   -0.118382    0.002977    0.008519    0.111851
O    -2.120367   -1.263516    0.149801   -0.000226   -0.000721   -0.007711
O     0.547846    2.444009   -0.198262   -0.000062    0.000117    0.000334
H     2.234148   -1.742737    0.053127    0.004639    0.013951    0.187902
H     0.005681   -2.543931    0.238022   -0.010600   -0.030475   -0.407110
H    -1.574320    1.194520    0.168821   -0.049008   -0.144760   -1.912152
H     2.632005    0.740257   -0.101178   -0.004455   -0.014455   -0.188563
12
* Frequency(14)  699.2518
C     1.629965    0.315610   -0.065301   -0.003200   -0.010241   -0.135337
C     1.417359   -1.016714    0.040627    0.002572    0.007545    0.100697
N     0.152106   -1.547217    0.113051   -0.002804   -0.007881   -0.105346
C    -1.012934   -0.778188    0.084369    0.003744    0.011189    0.148053
N    -0.757957    0.578797   -0.024165    0.002185    0.006631    0.087559
C     0.490659    1.235340   -0.105671    0.002977    0.008519    0.111851
O    -2.120393   -1.263598    0.148925   -0.000226   -0.000721   -0.007711
O     0.547838    2.444022   -0.198224   -0.000062    0.000117    0.000334
H     2.234675   -1.741152    0.074482    0.004639    0.013951    0.187902
H     0.004476   -2.547394    0.191756   -0.010600   -0.030475   -0.407110
H    -1.579890    1.178069   -0.048486   -0.049008   -0.144760   -1.912152
H     2.631499    0.738614   -0.122607   -0.004455   -0.014455   -0.188563
