12
* (null), Energy   -1000.0000000
C     1.326706    0.515754   -0.072626    0.021113    0.146133   -0.011484
C     1.114284   -0.816584    0.032594    0.085035   -0.010347   -0.001290
N    -0.151041   -1.347120    0.103530    0.034421   -0.152158    0.010566
C    -1.315628   -0.577682    0.076752   -0.192451    0.451799   -0.029147
N    -1.060936    0.779065   -0.032267    0.289676    0.047445   -0.010898
C     0.187706    1.435734   -0.112929   -0.274904    0.034603    0.004313
O    -2.423226   -1.063291    0.142349   -0.039647   -0.110071    0.009366
O     0.244598    2.644464   -0.204665    0.029507   -0.097025    0.006519
H     1.931646   -1.540867    0.066907   -0.346564   -0.534057    0.048610
H    -0.299216   -2.347153    0.186398    0.643104   -0.245424    0.000905
H    -1.882973    1.378347   -0.056429   -0.683136   -1.294754    0.114884
H     2.328081    0.939334   -0.129643    0.347981   -0.597438    0.036191
12
* Frequency(26) 1404.7830
C     1.329105    0.532361   -0.073931    0.021113    0.146133   -0.011484
C     1.123947   -0.817760    0.032448    0.085035   -0.010347   -0.001290
N    -0.147130   -1.364412    0.104731    0.034421   -0.152158    0.010566
C    -1.337499   -0.526337    0.073440   -0.192451    0.451799   -0.029147
N    -1.028015    0.784457   -0.033506    0.289676    0.047445   -0.010898
C     0.156465    1.439666   -0.112439   -0.274904    0.034603    0.004313
O    -2.427732   -1.075800    0.143413   -0.039647   -0.110071    0.009366
O     0.247951    2.633438   -0.203924    0.029507   -0.097025    0.006519
H     1.892261   -1.601560    0.072432   -0.346564   -0.534057    0.048610
H    -0.226131   -2.375045    0.186501    0.643104   -0.245424    0.000905
H    -1.960608    1.231205   -0.043373   -0.683136   -1.294754    0.114884
H     2.367627    0.871438   -0.125530    0.347981   -0.597438    0.036191
12
* Frequency(26) 1404.7830
C     1.331245    0.547168   -0.075095    0.021113    0.146133   -0.011484
C     1.132564   -0.818808    0.032317    0.085035   -0.010347   -0.001290
N    -0.143642   -1.379830    0.105801    0.034421   -0.152158    0.010566
C    -1.357000   -0.480557    0.070486   -0.192451    0.451799   -0.029147
N    -0.998663    0.789264   -0.034610    0.289676    0.047445   -0.010898
C     0.128609    1.443173   -0.112002   -0.274904    0.034603    0.004313
O    -2.431749   -1.086953    0.144362   -0.039647   -0.110071    0.009366
O     0.250941    2.623606   -0.203264    0.029507   -0.097025    0.006519
H     1.857144   -1.655676    0.077357   -0.346564   -0.534057    0.048610
H    -0.160965   -2.399913    0.186592    0.643104   -0.245424    0.000905
H    -2.029830    1.100008   -0.031732   -0.683136   -1.294754    0.114884
H     2.402888    0.810900   -0.121863    0.347981   -0.597438    0.036191
12
* Frequency(26) 1404.7830
C     1.332892    0.558572   -0.075991    0.021113    0.146133   -0.011484
C     1.139199   -0.819615    0.032216    0.085035   -0.010347   -0.001290
N    -0.140956   -1.391704    0.106626    0.034421   -0.152158    0.010566
C    -1.372018   -0.445301    0.068212   -0.192451    0.451799   -0.029147
N    -0.976058    0.792966   -0.035460    0.289676    0.047445   -0.010898
C     0.107157    1.445873   -0.111666   -0.274904    0.034603    0.004313
O    -2.434843   -1.095543    0.145093   -0.039647   -0.110071    0.009366
O     0.253244    2.616035   -0.202755    0.029507   -0.097025    0.006519
H     1.830100   -1.697350    0.081150   -0.346564   -0.534057    0.048610
H    -0.110781   -2.419065    0.186663    0.643104   -0.245424    0.000905
H    -2.083138    0.998973   -0.022767   -0.683136   -1.294754    0.114884
H     2.430042    0.764280   -0.119039    0.347981   -0.597438    0.036191
12
* Frequency(26) 1404.7830
C     1.333869    0.565335   -0.076522    0.021113    0.146133   -0.011484
C     1.143135   -0.820094    0.032156    0.085035   -0.010347   -0.001290
N    -0.139363   -1.398746    0.107115    0.034421   -0.152158    0.010566
C    -1.380925   -0.424391    0.066863   -0.192451    0.451799   -0.029147
N    -0.962651    0.795162   -0.035965    0.289676    0.047445   -0.010898
C     0.094434    1.447475   -0.111466   -0.274904    0.034603    0.004313
O    -2.436678   -1.100637    0.145526   -0.039647   -0.110071    0.009366
O     0.254610    2.611545   -0.202453    0.029507   -0.097025    0.006519
H     1.814060   -1.722068    0.083400   -0.346564   -0.534057    0.048610
H    -0.081017   -2.430423    0.186705    0.643104   -0.245424    0.000905
H    -2.114754    0.939050   -0.017450   -0.683136   -1.294754    0.114884
H     2.446147    0.736629   -0.117364    0.347981   -0.597438    0.036191
12
* Frequency(26) 1404.7830
C     1.334070    0.566725   -0.076631    0.021113    0.146133   -0.011484
C     1.143944   -0.820193    0.032144    0.085035   -0.010347   -0.001290
N    -0.139035   -1.400193    0.107215    0.034421   -0.152158    0.010566
C    -1.382756   -0.420092    0.066585   -0.192451    0.451799   -0.029147
N    -0.959895    0.795614   -0.036068    0.289676    0.047445   -0.010898
C     0.091818    1.447804   -0.111425   -0.274904    0.034603    0.004313
O    -2.437055   -1.101684    0.145616   -0.039647   -0.110071    0.009366
O     0.254890    2.610621   -0.202391    0.029507   -0.097025    0.006519
H     1.810763   -1.727149    0.083863   -0.346564   -0.534057    0.048610
H    -0.074899   -2.432758    0.186713    0.643104   -0.245424    0.000905
H    -2.121254    0.926731   -0.016357   -0.683136   -1.294754    0.114884
H     2.449458    0.730945   -0.117020    0.347981   -0.597438    0.036191
12
* Frequency(26) 1404.7830
C     1.333473    0.562592   -0.076307    0.021113    0.146133   -0.011484
C     1.141539   -0.819900    0.032181    0.085035   -0.010347   -0.001290
N    -0.140009   -1.395890    0.106916    0.034421   -0.152158    0.010566
C    -1.377313   -0.432871    0.067410   -0.192451    0.451799   -0.029147
N    -0.968088    0.794272   -0.035760    0.289676    0.047445   -0.010898
C     0.099594    1.446825   -0.111547   -0.274904    0.034603    0.004313
O    -2.435934   -1.098571    0.145351   -0.039647   -0.110071    0.009366
O     0.254056    2.613366   -0.202576    0.029507   -0.097025    0.006519
H     1.820565   -1.712044    0.082488   -0.346564   -0.534057    0.048610
H    -0.093088   -2.425817    0.186688    0.643104   -0.245424    0.000905
H    -2.101932    0.963351   -0.019606   -0.683136   -1.294754    0.114884
H     2.439616    0.747843   -0.118043    0.347981   -0.597438    0.036191
12
* Frequency(26) 1404.7830
C     1.332143    0.553383   -0.075583    0.021113    0.146133   -0.011484
C     1.136180   -0.819248    0.032262    0.085035   -0.010347   -0.001290
N    -0.142178   -1.386301    0.106251    0.034421   -0.152158    0.010566
C    -1.365185   -0.461342    0.069247   -0.192451    0.451799   -0.029147
N    -0.986343    0.791282   -0.035073    0.289676    0.047445   -0.010898
C     0.116917    1.444644   -0.111819   -0.274904    0.034603    0.004313
O    -2.433435   -1.091635    0.144760   -0.039647   -0.110071    0.009366
O     0.252196    2.619480   -0.202986    0.029507   -0.097025    0.006519
H     1.842405   -1.678389    0.079425   -0.346564   -0.534057    0.048610
H    -0.133615   -2.410351    0.186631    0.643104   -0.245424    0.000905
H    -2.058883    1.044943   -0.026846   -0.683136   -1.294754    0.114884
H     2.417687    0.785492   -0.120324    0.347981   -0.597438    0.036191
12
* Frequency(26) 1404.7830
C     1.330223    0.540097   -0.074539    0.021113    0.146133   -0.011484
C     1.128449   -0.818307    0.032379    0.085035   -0.010347   -0.001290
N    -0.145307   -1.372467    0.105290    0.034421   -0.152158    0.010566
C    -1.347687   -0.502420    0.071897   -0.192451    0.451799   -0.029147
N    -1.012681    0.786968   -0.034082    0.289676    0.047445   -0.010898
C     0.141912    1.441498   -0.112211   -0.274904    0.034603    0.004313
O    -2.429831   -1.081627    0.143909   -0.039647   -0.110071    0.009366
O     0.249514    2.628302   -0.203579    0.029507   -0.097025    0.006519
H     1.873915   -1.629831    0.075005   -0.346564   -0.534057    0.048610
H    -0.192087   -2.388037    0.186548    0.643104   -0.245424    0.000905
H    -1.996771    1.162665   -0.037291   -0.683136   -1.294754    0.114884
H     2.386048    0.839812   -0.123615    0.347981   -0.597438    0.036191
12
* Frequency(26) 1404.7830
C     1.327922    0.524172   -0.073287    0.021113    0.146133   -0.011484
C     1.119182   -0.817180    0.032520    0.085035   -0.010347   -0.001290
N    -0.149058   -1.355886    0.104138    0.034421   -0.152158    0.010566
C    -1.326715   -0.551655    0.075073   -0.192451    0.451799   -0.029147
N    -1.044248    0.781798   -0.032895    0.289676    0.047445   -0.010898
C     0.171869    1.437727   -0.112681   -0.274904    0.034603    0.004313
O    -2.425510   -1.069632    0.142888   -0.039647   -0.110071    0.009366
O     0.246298    2.638875   -0.204290    0.029507   -0.097025    0.006519
H     1.911681   -1.571633    0.069708   -0.346564   -0.534057    0.048610
H    -0.262168   -2.361292    0.186450    0.643104   -0.245424    0.000905
H    -1.922327    1.303758   -0.049811   -0.683136   -1.294754    0.114884
H     2.348127    0.904917   -0.127558    0.347981   -0.597438    0.036191
12
* Frequency(26) 1404.7830
C     1.325490    0.507335   -0.071964    0.021113    0.146133   -0.011484
C     1.109385   -0.815988    0.032669    0.085035   -0.010347   -0.001290
N    -0.153024   -1.338354    0.102921    0.034421   -0.152158    0.010566
C    -1.304541   -0.603709    0.078431   -0.192451    0.451799   -0.029147
N    -1.077623    0.776331   -0.031639    0.289676    0.047445   -0.010898
C     0.203543    1.433741   -0.113178   -0.274904    0.034603    0.004313
O    -2.420942   -1.056950    0.141809   -0.039647   -0.110071    0.009366
O     0.242898    2.650054   -0.205041    0.029507   -0.097025    0.006519
H     1.951611   -1.510101    0.064107   -0.346564   -0.534057    0.048610
H    -0.336264   -2.333015    0.186346    0.643104   -0.245424    0.000905
H    -1.843619    1.452935   -0.063047   -0.683136   -1.294754    0.114884
H     2.308034    0.973751   -0.131728    0.347981   -0.597438    0.036191
12
* Frequency(26) 1404.7830
C     1.323189    0.491411   -0.070713    0.021113    0.146133   -0.011484
C     1.100118   -0.814860    0.032809    0.085035   -0.010347   -0.001290
N    -0.156775   -1.321773    0.101770    0.034421   -0.152158    0.010566
C    -1.283569   -0.652943    0.081607   -0.192451    0.451799   -0.029147
N    -1.109190    0.771161   -0.030452    0.289676    0.047445   -0.010898
C     0.233500    1.429970   -0.113648   -0.274904    0.034603    0.004313
O    -2.416622   -1.044955    0.140788   -0.039647   -0.110071    0.009366
O     0.239683    2.660627   -0.205751    0.029507   -0.097025    0.006519
H     1.989377   -1.451903    0.058810   -0.346564   -0.534057    0.048610
H    -0.406346   -2.306270    0.186247    0.643104   -0.245424    0.000905
H    -1.769175    1.594029   -0.075566   -0.683136   -1.294754    0.114884
H     2.270114    1.038856   -0.135672    0.347981   -0.597438    0.036191
12
* Frequency(26) 1404.7830
C     1.321269    0.478124   -0.069669    0.021113    0.146133   -0.011484
C     1.092387   -0.813919    0.032927    0.085035   -0.010347   -0.001290
N    -0.159905   -1.307939    0.100809    0.034421   -0.152158    0.010566
C    -1.266071   -0.694022    0.084257   -0.192451    0.451799   -0.029147
N    -1.135528    0.766847   -0.029461    0.289676    0.047445   -0.010898
C     0.258495    1.426824   -0.114040   -0.274904    0.034603    0.004313
O    -2.413017   -1.034947    0.139937   -0.039647   -0.110071    0.009366
O     0.237000    2.669449   -0.206344    0.029507   -0.097025    0.006519
H     2.020887   -1.403346    0.054390   -0.346564   -0.534057    0.048610
H    -0.464818   -2.283956    0.186165    0.643104   -0.245424    0.000905
H    -1.707063    1.711750   -0.086012   -0.683136   -1.294754    0.114884
H     2.238474    1.093176   -0.138963    0.347981   -0.597438    0.036191
12
* Frequency(26) 1404.7830
C     1.319939    0.468915   -0.068945    0.021113    0.146133   -0.011484
C     1.087028   -0.813267    0.033008    0.085035   -0.010347   -0.001290
N    -0.162074   -1.298350    0.100143    0.034421   -0.152158    0.010566
C    -1.253943   -0.722493    0.086094   -0.192451    0.451799   -0.029147
N    -1.153783    0.763857   -0.028774    0.289676    0.047445   -0.010898
C     0.275819    1.424643   -0.114312   -0.274904    0.034603    0.004313
O    -2.410518   -1.028011    0.139346   -0.039647   -0.110071    0.009366
O     0.235141    2.675563   -0.206755    0.029507   -0.097025    0.006519
H     2.042727   -1.369691    0.051327   -0.346564   -0.534057    0.048610
H    -0.505344   -2.268490    0.186108    0.643104   -0.245424    0.000905
H    -1.664014    1.793342   -0.093251   -0.683136   -1.294754    0.114884
H     2.216546    1.130825   -0.141243    0.347981   -0.597438    0.036191
12
* Frequency(26) 1404.7830
C     1.319342    0.464782   -0.068620    0.021113    0.146133   -0.011484
C     1.084623   -0.812975    0.033044    0.085035   -0.010347   -0.001290
N    -0.163047   -1.294047    0.099844    0.034421   -0.152158    0.010566
C    -1.248500   -0.735271    0.086918   -0.192451    0.451799   -0.029147
N    -1.161976    0.762516   -0.028466    0.289676    0.047445   -0.010898
C     0.283594    1.423664   -0.114434   -0.274904    0.034603    0.004313
O    -2.409397   -1.024897    0.139081   -0.039647   -0.110071    0.009366
O     0.234306    2.678307   -0.206939    0.029507   -0.097025    0.006519
H     2.052529   -1.354586    0.049952   -0.346564   -0.534057    0.048610
H    -0.523534   -2.261548    0.186082    0.643104   -0.245424    0.000905
H    -1.644692    1.829963   -0.096501   -0.683136   -1.294754    0.114884
H     2.206703    1.147723   -0.142267    0.347981   -0.597438    0.036191
12
* Frequency(26) 1404.7830
C     1.319543    0.466172   -0.068730    0.021113    0.146133   -0.011484
C     1.085432   -0.813073    0.033032    0.085035   -0.010347   -0.001290
N    -0.162720   -1.295494    0.099945    0.034421   -0.152158    0.010566
C    -1.250331   -0.730973    0.086641   -0.192451    0.451799   -0.029147
N    -1.159220    0.762967   -0.028570    0.289676    0.047445   -0.010898
C     0.280978    1.423994   -0.114393   -0.274904    0.034603    0.004313
O    -2.409774   -1.025945    0.139171   -0.039647   -0.110071    0.009366
O     0.234587    2.677384   -0.206877    0.029507   -0.097025    0.006519
H     2.049232   -1.359667    0.050414   -0.346564   -0.534057    0.048610
H    -0.517415   -2.263883    0.186091    0.643104   -0.245424    0.000905
H    -1.651192    1.817644   -0.095408   -0.683136   -1.294754    0.114884
H     2.210014    1.142039   -0.141922    0.347981   -0.597438    0.036191
12
* Frequency(26) 1404.7830
C     1.320520    0.472935   -0.069261    0.021113    0.146133   -0.011484
C     1.089368   -0.813552    0.032972    0.085035   -0.010347   -0.001290
N    -0.161127   -1.302536    0.100434    0.034421   -0.152158    0.010566
C    -1.259238   -0.710063    0.085292   -0.192451    0.451799   -0.029147
N    -1.145813    0.765163   -0.029074    0.289676    0.047445   -0.010898
C     0.268255    1.425595   -0.114193   -0.274904    0.034603    0.004313
O    -2.411609   -1.031039    0.139604   -0.039647   -0.110071    0.009366
O     0.235952    2.672893   -0.206575    0.029507   -0.097025    0.006519
H     2.033192   -1.384384    0.052664   -0.346564   -0.534057    0.048610
H    -0.487651   -2.275242    0.186133    0.643104   -0.245424    0.000905
H    -1.682809    1.757720   -0.090091   -0.683136   -1.294754    0.114884
H     2.226119    1.114388   -0.140247    0.347981   -0.597438    0.036191
12
* Frequency(26) 1404.7830
C     1.322167    0.484339   -0.070157    0.021113    0.146133   -0.011484
C     1.096003   -0.814359    0.032872    0.085035   -0.010347   -0.001290
N    -0.158441   -1.314410    0.101258    0.034421   -0.152158    0.010566
C    -1.274256   -0.674807    0.083018   -0.192451    0.451799   -0.029147
N    -1.123209    0.768865   -0.029924    0.289676    0.047445   -0.010898
C     0.246803    1.428295   -0.113856   -0.274904    0.034603    0.004313
O    -2.414703   -1.039628    0.140335   -0.039647   -0.110071    0.009366
O     0.238255    2.665322   -0.206067    0.029507   -0.097025    0.006519
H     2.006148   -1.426059    0.056457   -0.346564   -0.534057    0.048610
H    -0.437467   -2.294393    0.186203    0.643104   -0.245424    0.000905
H    -1.736116    1.656686   -0.081126   -0.683136   -1.294754    0.114884
H     2.253274    1.067768   -0.137423    0.347981   -0.597438    0.036191
12
* Frequency(26) 1404.7830
C     1.324307    0.499146   -0.071321    0.021113    0.146133   -0.011484
C     1.104620   -0.815408    0.032741    0.085035   -0.010347   -0.001290
N    -0.154953   -1.329828    0.102329    0.034421   -0.152158    0.010566
C    -1.293757   -0.629026    0.080064   -0.192451    0.451799   -0.029147
N    -1.093856    0.773673   -0.031029    0.289676    0.047445   -0.010898
C     0.218948    1.431802   -0.113419   -0.274904    0.034603    0.004313
O    -2.418720   -1.050782    0.141284   -0.039647   -0.110071    0.009366
O     0.241245    2.655491   -0.205406    0.029507   -0.097025    0.006519
H     1.971031   -1.480175    0.061383   -0.346564   -0.534057    0.048610
H    -0.372302   -2.319262    0.186295    0.643104   -0.245424    0.000905
H    -1.805338    1.525489   -0.069485   -0.683136   -1.294754    0.114884
H     2.288535    1.007230   -0.133756    0.347981   -0.597438    0.036191
12
* Frequency(26) 1404.7830
C     1.326706    0.515754   -0.072626    0.021113    0.146133   -0.011484
C     1.114284   -0.816584    0.032594    0.085035   -0.010347   -0.001290
N    -0.151041   -1.347120    0.103530    0.034421   -0.152158    0.010566
C    -1.315628   -0.577682    0.076752   -0.192451    0.451799   -0.029147
N    -1.060936    0.779065   -0.032267    0.289676    0.047445   -0.010898
C     0.187706    1.435734   -0.112929   -0.274904    0.034603    0.004313
O    -2.423226   -1.063291    0.142349   -0.039647   -0.110071    0.009366
O     0.244598    2.644464   -0.204665    0.029507   -0.097025    0.006519
H     1.931646   -1.540867    0.066907   -0.346564   -0.534057    0.048610
H    -0.299216   -2.347153    0.186398    0.643104   -0.245424    0.000905
H    -1.882973    1.378347   -0.056429   -0.683136   -1.294754    0.114884
H     2.328081    0.939334   -0.129643    0.347981   -0.597438    0.036191
