12
* (null), Energy   -1000.0000000
C     1.629965    0.315610   -0.065301    0.064817   -0.064179    0.003197
C     1.417359   -1.016714    0.040627   -0.107960    0.016208    0.001447
N     0.152106   -1.547217    0.113051    0.064191    0.055845   -0.005870
C    -1.012934   -0.778188    0.084369    0.070161   -0.248590    0.016927
N    -0.757957    0.578797   -0.024165    0.100749    0.217238   -0.018933
C     0.490659    1.235340   -0.105671   -0.244382   -0.020596    0.007842
O    -2.120393   -1.263598    0.148925   -0.020821    0.007821   -0.000033
O     0.547838    2.444022   -0.198224    0.008138    0.010331   -0.000985
H     2.234675   -1.741152    0.074482   -0.996514   -0.974486    0.099653
H     0.004476   -2.547394    0.191756    1.128395   -0.082928   -0.022660
H    -1.579890    1.178069   -0.048486    0.387652    0.617267   -0.056697
H     2.631499    0.738614   -0.122607   -0.020184    0.136453   -0.009965
12
* Frequency(23) 1197.6333
C     1.637331    0.308316   -0.064938    0.064817   -0.064179    0.003197
C     1.405090   -1.014872    0.040792   -0.107960    0.016208    0.001447
N     0.159401   -1.540870    0.112384    0.064191    0.055845   -0.005870
C    -1.004961   -0.806439    0.086293    0.070161   -0.248590    0.016927
N    -0.746507    0.603485   -0.026316    0.100749    0.217238   -0.018933
C     0.462886    1.232999   -0.104780   -0.244382   -0.020596    0.007842
O    -2.122759   -1.262709    0.148921   -0.020821    0.007821   -0.000033
O     0.548763    2.445196   -0.198336    0.008138    0.010331   -0.000985
H     2.121426   -1.851897    0.085807   -0.996514   -0.974486    0.099653
H     0.132713   -2.556819    0.189181    1.128395   -0.082928   -0.022660
H    -1.535835    1.248218   -0.054929    0.387652    0.617267   -0.056697
H     2.629205    0.754121   -0.123740   -0.020184    0.136453   -0.009965
12
* Frequency(23) 1197.6333
C     1.643899    0.301813   -0.064614    0.064817   -0.064179    0.003197
C     1.394150   -1.013230    0.040938   -0.107960    0.016208    0.001447
N     0.165906   -1.535212    0.111789    0.064191    0.055845   -0.005870
C    -0.997851   -0.831628    0.088008    0.070161   -0.248590    0.016927
N    -0.736298    0.625498   -0.028235    0.100749    0.217238   -0.018933
C     0.438123    1.230912   -0.103985   -0.244382   -0.020596    0.007842
O    -2.124869   -1.261917    0.148918   -0.020821    0.007821   -0.000033
O     0.549588    2.446243   -0.198435    0.008138    0.010331   -0.000985
H     2.020450   -1.950641    0.095904   -0.996514   -0.974486    0.099653
H     0.247052   -2.565222    0.186884    1.128395   -0.082928   -0.022660
H    -1.496555    1.310765   -0.060674    0.387652    0.617267   -0.056697
H     2.627160    0.767948   -0.124749   -0.020184    0.136453   -0.009965
12
* Frequency(23) 1197.6333
C     1.648957    0.296805   -0.064364    0.064817   -0.064179    0.003197
C     1.385726   -1.011965    0.041051   -0.107960    0.016208    0.001447
N     0.170915   -1.530854    0.111331    0.064191    0.055845   -0.005870
C    -0.992377   -0.851027    0.089329    0.070161   -0.248590    0.016927
N    -0.728436    0.642450   -0.029712    0.100749    0.217238   -0.018933
C     0.419053    1.229305   -0.103373   -0.244382   -0.020596    0.007842
O    -2.126493   -1.261306    0.148915   -0.020821    0.007821   -0.000033
O     0.550223    2.447049   -0.198512    0.008138    0.010331   -0.000985
H     1.942688   -2.026684    0.103681   -0.996514   -0.974486    0.099653
H     0.335105   -2.571693    0.185116    1.128395   -0.082928   -0.022660
H    -1.466305    1.358933   -0.065098    0.387652    0.617267   -0.056697
H     2.625585    0.778596   -0.125527   -0.020184    0.136453   -0.009965
12
* Frequency(23) 1197.6333
C     1.651957    0.293835   -0.064216    0.064817   -0.064179    0.003197
C     1.380729   -1.011215    0.041118   -0.107960    0.016208    0.001447
N     0.173886   -1.528269    0.111060    0.064191    0.055845   -0.005870
C    -0.989129   -0.862532    0.090112    0.070161   -0.248590    0.016927
N    -0.723773    0.652504   -0.030588    0.100749    0.217238   -0.018933
C     0.407742    1.228352   -0.103010   -0.244382   -0.020596    0.007842
O    -2.127457   -1.260944    0.148914   -0.020821    0.007821   -0.000033
O     0.550600    2.447527   -0.198558    0.008138    0.010331   -0.000985
H     1.896568   -2.071785    0.108293   -0.996514   -0.974486    0.099653
H     0.387330   -2.575531    0.184067    1.128395   -0.082928   -0.022660
H    -1.448363    1.387501   -0.067722    0.387652    0.617267   -0.056697
H     2.624651    0.784911   -0.125988   -0.020184    0.136453   -0.009965
12
* Frequency(23) 1197.6333
C     1.652573    0.293224   -0.064186    0.064817   -0.064179    0.003197
C     1.379702   -1.011061    0.041132   -0.107960    0.016208    0.001447
N     0.174496   -1.527738    0.111004    0.064191    0.055845   -0.005870
C    -0.988462   -0.864897    0.090273    0.070161   -0.248590    0.016927
N    -0.722815    0.654571   -0.030769    0.100749    0.217238   -0.018933
C     0.405417    1.228156   -0.102935   -0.244382   -0.020596    0.007842
O    -2.127655   -1.260870    0.148913   -0.020821    0.007821   -0.000033
O     0.550677    2.447626   -0.198567    0.008138    0.010331   -0.000985
H     1.887086   -2.081057    0.109241   -0.996514   -0.974486    0.099653
H     0.398066   -2.576320    0.183852    1.128395   -0.082928   -0.022660
H    -1.444675    1.393374   -0.068262    0.387652    0.617267   -0.056697
H     2.624459    0.786210   -0.126083   -0.020184    0.136453   -0.009965
12
* Frequency(23) 1197.6333
C     1.650740    0.295039   -0.064276    0.064817   -0.064179    0.003197
C     1.382756   -1.011519    0.041091   -0.107960    0.016208    0.001447
N     0.172681   -1.529317    0.111170    0.064191    0.055845   -0.005870
C    -0.990446   -0.857866    0.089795    0.070161   -0.248590    0.016927
N    -0.725664    0.648426   -0.030233    0.100749    0.217238   -0.018933
C     0.412329    1.228738   -0.103157   -0.244382   -0.020596    0.007842
O    -2.127066   -1.261091    0.148914   -0.020821    0.007821   -0.000033
O     0.550447    2.447333   -0.198539    0.008138    0.010331   -0.000985
H     1.915272   -2.053494    0.106422   -0.996514   -0.974486    0.099653
H     0.366150   -2.573974    0.184493    1.128395   -0.082928   -0.022660
H    -1.455639    1.375915   -0.066658    0.387652    0.617267   -0.056697
H     2.625030    0.782350   -0.125801   -0.020184    0.136453   -0.009965
12
* Frequency(23) 1197.6333
C     1.646656    0.299084   -0.064478    0.064817   -0.064179    0.003197
C     1.389559   -1.012541    0.041000   -0.107960    0.016208    0.001447
N     0.168636   -1.532837    0.111540    0.064191    0.055845   -0.005870
C    -0.994868   -0.842201    0.088728    0.070161   -0.248590    0.016927
N    -0.732013    0.634737   -0.029040    0.100749    0.217238   -0.018933
C     0.427730    1.230036   -0.103651   -0.244382   -0.020596    0.007842
O    -2.125754   -1.261584    0.148916   -0.020821    0.007821   -0.000033
O     0.549934    2.446682   -0.198477    0.008138    0.010331   -0.000985
H     1.978069   -1.992085    0.100142   -0.996514   -0.974486    0.099653
H     0.295042   -2.568749    0.185921    1.128395   -0.082928   -0.022660
H    -1.480068    1.337017   -0.063085    0.387652    0.617267   -0.056697
H     2.626302    0.773751   -0.125173   -0.020184    0.136453   -0.009965
12
* Frequency(23) 1197.6333
C     1.640762    0.304919   -0.064768    0.064817   -0.064179    0.003197
C     1.399375   -1.014014    0.040868   -0.107960    0.016208    0.001447
N     0.162799   -1.537914    0.112074    0.064191    0.055845   -0.005870
C    -1.001247   -0.819598    0.087189    0.070161   -0.248590    0.016927
N    -0.741174    0.614985   -0.027319    0.100749    0.217238   -0.018933
C     0.449949    1.231909   -0.104364   -0.244382   -0.020596    0.007842
O    -2.123861   -1.262295    0.148919   -0.020821    0.007821   -0.000033
O     0.549194    2.445743   -0.198388    0.008138    0.010331   -0.000985
H     2.068674   -1.903483    0.091082   -0.996514   -0.974486    0.099653
H     0.192446   -2.561209    0.187981    1.128395   -0.082928   -0.022660
H    -1.515314    1.280894   -0.057930    0.387652    0.617267   -0.056697
H     2.628137    0.761345   -0.124267   -0.020184    0.136453   -0.009965
12
* Frequency(23) 1197.6333
C     1.633699    0.311913   -0.065117    0.064817   -0.064179    0.003197
C     1.411140   -1.015781    0.040710   -0.107960    0.016208    0.001447
N     0.155804   -1.544000    0.112713    0.064191    0.055845   -0.005870
C    -1.008892   -0.792509    0.085344    0.070161   -0.248590    0.016927
N    -0.752153    0.591312   -0.025255    0.100749    0.217238   -0.018933
C     0.476580    1.234153   -0.105219   -0.244382   -0.020596    0.007842
O    -2.121592   -1.263147    0.148923   -0.020821    0.007821   -0.000033
O     0.548307    2.444617   -0.198280    0.008138    0.010331   -0.000985
H     2.177268   -1.797290    0.080222   -0.996514   -0.974486    0.099653
H     0.069481   -2.552172    0.190450    1.128395   -0.082928   -0.022660
H    -1.557558    1.213628   -0.051752    0.387652    0.617267   -0.056697
H     2.630336    0.746475   -0.123181   -0.020184    0.136453   -0.009965
12
* Frequency(23) 1197.6333
C     1.626231    0.319307   -0.065485    0.064817   -0.064179    0.003197
C     1.423578   -1.017648    0.040544   -0.107960    0.016208    0.001447
N     0.148408   -1.550434    0.113390    0.064191    0.055845   -0.005870
C    -1.016976   -0.763867    0.083394    0.070161   -0.248590    0.016927
N    -0.763761    0.566282   -0.023074    0.100749    0.217238   -0.018933
C     0.504737    1.236526   -0.106123   -0.244382   -0.020596    0.007842
O    -2.119193   -1.264048    0.148927   -0.020821    0.007821   -0.000033
O     0.547370    2.443427   -0.198167    0.008138    0.010331   -0.000985
H     2.292082   -1.685013    0.068741   -0.996514   -0.974486    0.099653
H    -0.060528   -2.542617    0.193061    1.128395   -0.082928   -0.022660
H    -1.602222    1.142509   -0.045219    0.387652    0.617267   -0.056697
H     2.632662    0.730753   -0.122033   -0.020184    0.136453   -0.009965
12
* Frequency(23) 1197.6333
C     1.619168    0.326301   -0.065833    0.064817   -0.064179    0.003197
C     1.435343   -1.019414    0.040386   -0.107960    0.016208    0.001447
N     0.141413   -1.556520    0.114029    0.064191    0.055845   -0.005870
C    -1.024622   -0.736777    0.081550    0.070161   -0.248590    0.016927
N    -0.774740    0.542609   -0.021011    0.100749    0.217238   -0.018933
C     0.531368    1.238771   -0.106977   -0.244382   -0.020596    0.007842
O    -2.116924   -1.264901    0.148930   -0.020821    0.007821   -0.000033
O     0.546483    2.442301   -0.198060    0.008138    0.010331   -0.000985
H     2.400676   -1.578820    0.057881   -0.996514   -0.974486    0.099653
H    -0.183493   -2.533580    0.195530    1.128395   -0.082928   -0.022660
H    -1.644465    1.075243   -0.039041    0.387652    0.617267   -0.056697
H     2.634861    0.715884   -0.120947   -0.020184    0.136453   -0.009965
12
* Frequency(23) 1197.6333
C     1.613274    0.332136   -0.066124    0.064817   -0.064179    0.003197
C     1.445159   -1.020888    0.040254   -0.107960    0.016208    0.001447
N     0.135577   -1.561597    0.114563    0.064191    0.055845   -0.005870
C    -1.031001   -0.714175    0.080011    0.070161   -0.248590    0.016927
N    -0.783900    0.522857   -0.019290    0.100749    0.217238   -0.018933
C     0.553588    1.240643   -0.107690   -0.244382   -0.020596    0.007842
O    -2.115031   -1.265612    0.148933   -0.020821    0.007821   -0.000033
O     0.545743    2.441362   -0.197970    0.008138    0.010331   -0.000985
H     2.491281   -1.490218    0.048821   -0.996514   -0.974486    0.099653
H    -0.286089   -2.526040    0.197591    1.128395   -0.082928   -0.022660
H    -1.679711    1.019120   -0.033886    0.387652    0.617267   -0.056697
H     2.636697    0.703477   -0.120041   -0.020184    0.136453   -0.009965
12
* Frequency(23) 1197.6333
C     1.609190    0.336181   -0.066326    0.064817   -0.064179    0.003197
C     1.451963   -1.021909    0.040163   -0.107960    0.016208    0.001447
N     0.131532   -1.565117    0.114933    0.064191    0.055845   -0.005870
C    -1.035422   -0.698510    0.078944    0.070161   -0.248590    0.016927
N    -0.790249    0.509168   -0.018096    0.100749    0.217238   -0.018933
C     0.568988    1.241941   -0.108184   -0.244382   -0.020596    0.007842
O    -2.113719   -1.266105    0.148935   -0.020821    0.007821   -0.000033
O     0.545230    2.440711   -0.197908    0.008138    0.010331   -0.000985
H     2.554078   -1.428809    0.042541   -0.996514   -0.974486    0.099653
H    -0.357197   -2.520814    0.199019    1.128395   -0.082928   -0.022660
H    -1.704140    0.980222   -0.030313    0.387652    0.617267   -0.056697
H     2.637968    0.694878   -0.119413   -0.020184    0.136453   -0.009965
12
* Frequency(23) 1197.6333
C     1.607356    0.337996   -0.066416    0.064817   -0.064179    0.003197
C     1.455016   -1.022368    0.040122   -0.107960    0.016208    0.001447
N     0.129716   -1.566696    0.115099    0.064191    0.055845   -0.005870
C    -1.037407   -0.691478    0.078465    0.070161   -0.248590    0.016927
N    -0.793098    0.503023   -0.017561    0.100749    0.217238   -0.018933
C     0.575900    1.242524   -0.108406   -0.244382   -0.020596    0.007842
O    -2.113130   -1.266326    0.148936   -0.020821    0.007821   -0.000033
O     0.545000    2.440418   -0.197880    0.008138    0.010331   -0.000985
H     2.582263   -1.401247    0.039722   -0.996514   -0.974486    0.099653
H    -0.389113   -2.518469    0.199660    1.128395   -0.082928   -0.022660
H    -1.715104    0.962763   -0.028709    0.387652    0.617267   -0.056697
H     2.638539    0.691019   -0.119131   -0.020184    0.136453   -0.009965
12
* Frequency(23) 1197.6333
C     1.607973    0.337385   -0.066386    0.064817   -0.064179    0.003197
C     1.453989   -1.022213    0.040136   -0.107960    0.016208    0.001447
N     0.130327   -1.566165    0.115043    0.064191    0.055845   -0.005870
C    -1.036739   -0.693844    0.078626    0.070161   -0.248590    0.016927
N    -0.792140    0.505090   -0.017741    0.100749    0.217238   -0.018933
C     0.573575    1.242328   -0.108332   -0.244382   -0.020596    0.007842
O    -2.113328   -1.266251    0.148936   -0.020821    0.007821   -0.000033
O     0.545077    2.440517   -0.197890    0.008138    0.010331   -0.000985
H     2.572782   -1.410518    0.040670   -0.996514   -0.974486    0.099653
H    -0.378377   -2.519258    0.199444    1.128395   -0.082928   -0.022660
H    -1.711416    0.968636   -0.029249    0.387652    0.617267   -0.056697
H     2.638347    0.692317   -0.119226   -0.020184    0.136453   -0.009965
12
* Frequency(23) 1197.6333
C     1.610973    0.334415   -0.066238    0.064817   -0.064179    0.003197
C     1.448992   -1.021463    0.040203   -0.107960    0.016208    0.001447
N     0.133298   -1.563580    0.114771    0.064191    0.055845   -0.005870
C    -1.033492   -0.705349    0.079410    0.070161   -0.248590    0.016927
N    -0.787477    0.515144   -0.018617    0.100749    0.217238   -0.018933
C     0.562264    1.241375   -0.107969   -0.244382   -0.020596    0.007842
O    -2.114292   -1.265889    0.148934   -0.020821    0.007821   -0.000033
O     0.545454    2.440995   -0.197935    0.008138    0.010331   -0.000985
H     2.526662   -1.455619    0.045282   -0.996514   -0.974486    0.099653
H    -0.326153   -2.523096    0.198395    1.128395   -0.082928   -0.022660
H    -1.693475    0.997204   -0.031873    0.387652    0.617267   -0.056697
H     2.637413    0.698632   -0.119687   -0.020184    0.136453   -0.009965
12
* Frequency(23) 1197.6333
C     1.616031    0.329407   -0.065988    0.064817   -0.064179    0.003197
C     1.440568   -1.020199    0.040316   -0.107960    0.016208    0.001447
N     0.138307   -1.559222    0.114313    0.064191    0.055845   -0.005870
C    -1.028017   -0.724747    0.080731    0.070161   -0.248590    0.016927
N    -0.779615    0.532096   -0.020095    0.100749    0.217238   -0.018933
C     0.543194    1.239767   -0.107357   -0.244382   -0.020596    0.007842
O    -2.115917   -1.265279    0.148932   -0.020821    0.007821   -0.000033
O     0.546089    2.441801   -0.198012    0.008138    0.010331   -0.000985
H     2.448900   -1.531662    0.053059   -0.996514   -0.974486    0.099653
H    -0.238100   -2.529567    0.196627    1.128395   -0.082928   -0.022660
H    -1.663225    1.045372   -0.036297    0.387652    0.617267   -0.056697
H     2.635838    0.709280   -0.120465   -0.020184    0.136453   -0.009965
12
* Frequency(23) 1197.6333
C     1.622599    0.322904   -0.065664    0.064817   -0.064179    0.003197
C     1.429628   -1.018556    0.040463   -0.107960    0.016208    0.001447
N     0.144811   -1.553563    0.113718    0.064191    0.055845   -0.005870
C    -1.020908   -0.749937    0.082446    0.070161   -0.248590    0.016927
N    -0.769406    0.554109   -0.022013    0.100749    0.217238   -0.018933
C     0.518431    1.237680   -0.106562   -0.244382   -0.020596    0.007842
O    -2.118027   -1.264487    0.148929   -0.020821    0.007821   -0.000033
O     0.546914    2.442848   -0.198112    0.008138    0.010331   -0.000985
H     2.347924   -1.630406    0.063157   -0.996514   -0.974486    0.099653
H    -0.123760   -2.537970    0.194331    1.128395   -0.082928   -0.022660
H    -1.623944    1.107919   -0.042042    0.387652    0.617267   -0.056697
H     2.633793    0.723107   -0.121475   -0.020184    0.136453   -0.009965
12
* Frequency(23) 1197.6333
C     1.629965    0.315610   -0.065301    0.064817   -0.064179    0.003197
C     1.417359   -1.016714    0.040627   -0.107960    0.016208    0.001447
N     0.152106   -1.547217    0.113051    0.064191    0.055845   -0.005870
C    -1.012934   -0.778188    0.084369    0.070161   -0.248590    0.016927
N    -0.757957    0.578797   -0.024165    0.100749    0.217238   -0.018933
C     0.490659    1.235340   -0.105671   -0.244382   -0.020596    0.007842
O    -2.120393   -1.263598    0.148925   -0.020821    0.007821   -0.000033
O     0.547838    2.444022   -0.198224    0.008138    0.010331   -0.000985
H     2.234675   -1.741152    0.074482   -0.996514   -0.974486    0.099653
H     0.004476   -2.547394    0.191756    1.128395   -0.082928   -0.022660
H    -1.579890    1.178069   -0.048486    0.387652    0.617267   -0.056697
H     2.631499    0.738614   -0.122607   -0.020184    0.136453   -0.009965
