12
* (null), Energy   -1000.0000000
C     1.326706    0.515754   -0.072626    0.003648    0.010407    0.135735
C     1.114284   -0.816584    0.032594   -0.002762   -0.007179   -0.100719
N    -0.151041   -1.347120    0.103530    0.002536    0.007833    0.105282
C    -1.315628   -0.577682    0.076752   -0.004045   -0.011060   -0.147307
N    -1.060936    0.779065   -0.032267   -0.002072   -0.006709   -0.087405
C     0.187706    1.435734   -0.112929   -0.002553   -0.008573   -0.113117
O    -2.423226   -1.063291    0.142349    0.000132    0.000361    0.007425
O     0.244598    2.644464   -0.204665   -0.000000   -0.000133    0.000051
H     1.931646   -1.540867    0.066907   -0.004956   -0.013798   -0.188506
H    -0.299216   -2.347153    0.186398    0.010353    0.031728    0.407038
H    -1.882973    1.378347   -0.056429    0.049074    0.144110    1.912145
H     2.328081    0.939334   -0.129643    0.005032    0.014192    0.188140
12
* Frequency(14)  699.2338
C     1.327121    0.516936   -0.057200    0.003648    0.010407    0.135735
C     1.113970   -0.817400    0.021148   -0.002762   -0.007179   -0.100719
N    -0.150753   -1.346230    0.115494    0.002536    0.007833    0.105282
C    -1.316088   -0.578939    0.060011   -0.004045   -0.011060   -0.147307
N    -1.061171    0.778302   -0.042200   -0.002072   -0.006709   -0.087405
C     0.187416    1.434760   -0.125784   -0.002553   -0.008573   -0.113117
O    -2.423211   -1.063250    0.143192    0.000132    0.000361    0.007425
O     0.244598    2.644449   -0.204659   -0.000000   -0.000133    0.000051
H     1.931083   -1.542435    0.045485   -0.004956   -0.013798   -0.188506
H    -0.298040   -2.343548    0.232656    0.010353    0.031728    0.407038
H    -1.877396    1.394724    0.160877    0.049074    0.144110    1.912145
H     2.328653    0.940947   -0.108262    0.005032    0.014192    0.188140
12
* Frequency(14)  699.2338
C     1.327490    0.517991   -0.043446    0.003648    0.010407    0.135735
C     1.113690   -0.818127    0.010942   -0.002762   -0.007179   -0.100719
N    -0.150496   -1.345436    0.126163    0.002536    0.007833    0.105282
C    -1.316498   -0.580059    0.045085   -0.004045   -0.011060   -0.147307
N    -1.061381    0.777622   -0.051057   -0.002072   -0.006709   -0.087405
C     0.187157    1.433891   -0.137247   -0.002553   -0.008573   -0.113117
O    -2.423198   -1.063213    0.143945    0.000132    0.000361    0.007425
O     0.244598    2.644436   -0.204654   -0.000000   -0.000133    0.000051
H     1.930581   -1.543834    0.026383   -0.004956   -0.013798   -0.188506
H    -0.296991   -2.340333    0.273901    0.010353    0.031728    0.407038
H    -1.872424    1.409327    0.354634    0.049074    0.144110    1.912145
H     2.329163    0.942385   -0.089198    0.005032    0.014192    0.188140
12
* Frequency(14)  699.2338
C     1.327775    0.518803   -0.032854    0.003648    0.010407    0.135735
C     1.113474   -0.818687    0.003083   -0.002762   -0.007179   -0.100719
N    -0.150298   -1.344825    0.134378    0.002536    0.007833    0.105282
C    -1.316813   -0.580922    0.033590   -0.004045   -0.011060   -0.147307
N    -1.061543    0.777099   -0.057878   -0.002072   -0.006709   -0.087405
C     0.186958    1.433222   -0.146073   -0.002553   -0.008573   -0.113117
O    -2.423187   -1.063185    0.144524    0.000132    0.000361    0.007425
O     0.244598    2.644425   -0.204650   -0.000000   -0.000133    0.000051
H     1.930194   -1.544910    0.011674   -0.004956   -0.013798   -0.188506
H    -0.296183   -2.337857    0.305663    0.010353    0.031728    0.407038
H    -1.868594    1.420572    0.503846    0.049074    0.144110    1.912145
H     2.329555    0.943492   -0.074517    0.005032    0.014192    0.188140
12
* Frequency(14)  699.2338
C     1.327944    0.519284   -0.026572    0.003648    0.010407    0.135735
C     1.113346   -0.819019   -0.001579   -0.002762   -0.007179   -0.100719
N    -0.150181   -1.344462    0.139251    0.002536    0.007833    0.105282
C    -1.317000   -0.581434    0.026772   -0.004045   -0.011060   -0.147307
N    -1.061639    0.776788   -0.061923   -0.002072   -0.006709   -0.087405
C     0.186840    1.432825   -0.151309   -0.002553   -0.008573   -0.113117
O    -2.423181   -1.063168    0.144868    0.000132    0.000361    0.007425
O     0.244598    2.644419   -0.204648   -0.000000   -0.000133    0.000051
H     1.929965   -1.545549    0.002949   -0.004956   -0.013798   -0.188506
H    -0.295704   -2.336388    0.324502    0.010353    0.031728    0.407038
H    -1.866323    1.427242    0.592343    0.049074    0.144110    1.912145
H     2.329788    0.944149   -0.065809    0.005032    0.014192    0.188140
12
* Frequency(14)  699.2338
C     1.327978    0.519383   -0.025281    0.003648    0.010407    0.135735
C     1.113320   -0.819088   -0.002537   -0.002762   -0.007179   -0.100719
N    -0.150157   -1.344388    0.140252    0.002536    0.007833    0.105282
C    -1.317039   -0.581539    0.025371   -0.004045   -0.011060   -0.147307
N    -1.061658    0.776724   -0.062754   -0.002072   -0.006709   -0.087405
C     0.186816    1.432744   -0.152385   -0.002553   -0.008573   -0.113117
O    -2.423180   -1.063165    0.144938    0.000132    0.000361    0.007425
O     0.244598    2.644418   -0.204647   -0.000000   -0.000133    0.000051
H     1.929917   -1.545680    0.001156   -0.004956   -0.013798   -0.188506
H    -0.295605   -2.336086    0.328375    0.010353    0.031728    0.407038
H    -1.865856    1.428613    0.610536    0.049074    0.144110    1.912145
H     2.329836    0.944284   -0.064019    0.005032    0.014192    0.188140
12
* Frequency(14)  699.2338
C     1.327875    0.519089   -0.029120    0.003648    0.010407    0.135735
C     1.113398   -0.818885    0.000312   -0.002762   -0.007179   -0.100719
N    -0.150228   -1.344609    0.137275    0.002536    0.007833    0.105282
C    -1.316925   -0.581227    0.029537   -0.004045   -0.011060   -0.147307
N    -1.061600    0.776914   -0.060282   -0.002072   -0.006709   -0.087405
C     0.186888    1.432986   -0.149186   -0.002553   -0.008573   -0.113117
O    -2.423184   -1.063175    0.144728    0.000132    0.000361    0.007425
O     0.244598    2.644422   -0.204649   -0.000000   -0.000133    0.000051
H     1.930058   -1.545290    0.006487   -0.004956   -0.013798   -0.188506
H    -0.295898   -2.336984    0.316862    0.010353    0.031728    0.407038
H    -1.867244    1.424537    0.556453    0.049074    0.144110    1.912145
H     2.329694    0.943883   -0.069340    0.005032    0.014192    0.188140
12
* Frequency(14)  699.2338
C     1.327645    0.518433   -0.037674    0.003648    0.010407    0.135735
C     1.113572   -0.818432    0.006659   -0.002762   -0.007179   -0.100719
N    -0.150388   -1.345103    0.130640    0.002536    0.007833    0.105282
C    -1.316670   -0.580530    0.038820   -0.004045   -0.011060   -0.147307
N    -1.061469    0.777337   -0.054774   -0.002072   -0.006709   -0.087405
C     0.187049    1.433527   -0.142057   -0.002553   -0.008573   -0.113117
O    -2.423192   -1.063198    0.144260    0.000132    0.000361    0.007425
O     0.244598    2.644430   -0.204652   -0.000000   -0.000133    0.000051
H     1.930370   -1.544420    0.018366   -0.004956   -0.013798   -0.188506
H    -0.296550   -2.338983    0.291211    0.010353    0.031728    0.407038
H    -1.870336    1.415456    0.435955    0.049074    0.144110    1.912145
H     2.329377    0.942988   -0.081197    0.005032    0.014192    0.188140
12
* Frequency(14)  699.2338
C     1.327314    0.517487   -0.050015    0.003648    0.010407    0.135735
C     1.113823   -0.817780    0.015816   -0.002762   -0.007179   -0.100719
N    -0.150619   -1.345815    0.121068    0.002536    0.007833    0.105282
C    -1.316302   -0.579524    0.052213   -0.004045   -0.011060   -0.147307
N    -1.061281    0.777947   -0.046827   -0.002072   -0.006709   -0.087405
C     0.187281    1.434306   -0.131772   -0.002553   -0.008573   -0.113117
O    -2.423204   -1.063231    0.143585    0.000132    0.000361    0.007425
O     0.244598    2.644442   -0.204657   -0.000000   -0.000133    0.000051
H     1.930820   -1.543166    0.035506   -0.004956   -0.013798   -0.188506
H    -0.297492   -2.341868    0.254203    0.010353    0.031728    0.407038
H    -1.874798    1.402353    0.262099    0.049074    0.144110    1.912145
H     2.328919    0.941698   -0.098303    0.005032    0.014192    0.188140
12
* Frequency(14)  699.2338
C     1.326916    0.516353   -0.064806    0.003648    0.010407    0.135735
C     1.114124   -0.816997    0.026792   -0.002762   -0.007179   -0.100719
N    -0.150895   -1.346669    0.109595    0.002536    0.007833    0.105282
C    -1.315861   -0.578319    0.068266   -0.004045   -0.011060   -0.147307
N    -1.061055    0.778678   -0.037302   -0.002072   -0.006709   -0.087405
C     0.187559    1.435240   -0.119446   -0.002553   -0.008573   -0.113117
O    -2.423218   -1.063270    0.142776    0.000132    0.000361    0.007425
O     0.244598    2.644457   -0.204662   -0.000000   -0.000133    0.000051
H     1.931361   -1.541662    0.056048   -0.004956   -0.013798   -0.188506
H    -0.298620   -2.345326    0.209846    0.010353    0.031728    0.407038
H    -1.880146    1.386649    0.053726    0.049074    0.144110    1.912145
H     2.328371    0.940151   -0.118805    0.005032    0.014192    0.188140
12
* Frequency(14)  699.2338
C     1.326496    0.515154   -0.080445    0.003648    0.010407    0.135735
C     1.114443   -0.816170    0.038396   -0.002762   -0.007179   -0.100719
N    -0.151187   -1.347571    0.097465    0.002536    0.007833    0.105282
C    -1.315395   -0.577045    0.085238   -0.004045   -0.011060   -0.147307
N    -1.060816    0.779451   -0.027232   -0.002072   -0.006709   -0.087405
C     0.187853    1.436228   -0.106413   -0.002553   -0.008573   -0.113117
O    -2.423234   -1.063312    0.141921    0.000132    0.000361    0.007425
O     0.244598    2.644472   -0.204668   -0.000000   -0.000133    0.000051
H     1.931932   -1.540073    0.077767   -0.004956   -0.013798   -0.188506
H    -0.299813   -2.348981    0.162949    0.010353    0.031728    0.407038
H    -1.885800    1.370045   -0.166584    0.049074    0.144110    1.912145
H     2.327791    0.938516   -0.140482    0.005032    0.014192    0.188140
12
* Frequency(14)  699.2338
C     1.326098    0.514020   -0.095237    0.003648    0.010407    0.135735
C     1.114744   -0.815388    0.049372   -0.002762   -0.007179   -0.100719
N    -0.151464   -1.348425    0.085992    0.002536    0.007833    0.105282
C    -1.314954   -0.575840    0.101290   -0.004045   -0.011060   -0.147307
N    -1.060591    0.780182   -0.017707   -0.002072   -0.006709   -0.087405
C     0.188131    1.437162   -0.094086   -0.002553   -0.008573   -0.113117
O    -2.423248   -1.063351    0.141112    0.000132    0.000361    0.007425
O     0.244598    2.644486   -0.204673   -0.000000   -0.000133    0.000051
H     1.932472   -1.538569    0.098309   -0.004956   -0.013798   -0.188506
H    -0.300941   -2.352439    0.118593    0.010353    0.031728    0.407038
H    -1.891148    1.354341   -0.374957    0.049074    0.144110    1.912145
H     2.327243    0.936970   -0.160984    0.005032    0.014192    0.188140
12
* Frequency(14)  699.2338
C     1.325767    0.513074   -0.107578    0.003648    0.010407    0.135735
C     1.114995   -0.814735    0.058530   -0.002762   -0.007179   -0.100719
N    -0.151694   -1.349137    0.076419    0.002536    0.007833    0.105282
C    -1.314587   -0.574834    0.114684   -0.004045   -0.011060   -0.147307
N    -1.060402    0.780792   -0.009760   -0.002072   -0.006709   -0.087405
C     0.188363    1.437942   -0.083801   -0.002553   -0.008573   -0.113117
O    -2.423260   -1.063384    0.140437    0.000132    0.000361    0.007425
O     0.244598    2.644498   -0.204678   -0.000000   -0.000133    0.000051
H     1.932922   -1.537314    0.115448   -0.004956   -0.013798   -0.188506
H    -0.301882   -2.355323    0.081584    0.010353    0.031728    0.407038
H    -1.895610    1.341238   -0.548813    0.049074    0.144110    1.912145
H     2.326785    0.935679   -0.178090    0.005032    0.014192    0.188140
12
* Frequency(14)  699.2338
C     1.325537    0.512418   -0.116132    0.003648    0.010407    0.135735
C     1.115169   -0.814283    0.064877   -0.002762   -0.007179   -0.100719
N    -0.151854   -1.349631    0.069785    0.002536    0.007833    0.105282
C    -1.314332   -0.574137    0.123967   -0.004045   -0.011060   -0.147307
N    -1.060272    0.781215   -0.004252   -0.002072   -0.006709   -0.087405
C     0.188524    1.438482   -0.076673   -0.002553   -0.008573   -0.113117
O    -2.423269   -1.063406    0.139969    0.000132    0.000361    0.007425
O     0.244598    2.644507   -0.204681   -0.000000   -0.000133    0.000051
H     1.933235   -1.536445    0.127327   -0.004956   -0.013798   -0.188506
H    -0.302535   -2.357323    0.055933    0.010353    0.031728    0.407038
H    -1.898702    1.332156   -0.669311    0.049074    0.144110    1.912145
H     2.326468    0.934785   -0.189946    0.005032    0.014192    0.188140
12
* Frequency(14)  699.2338
C     1.325433    0.512124   -0.119971    0.003648    0.010407    0.135735
C     1.115247   -0.814080    0.067725   -0.002762   -0.007179   -0.100719
N    -0.151926   -1.349852    0.066807    0.002536    0.007833    0.105282
C    -1.314217   -0.573824    0.128133   -0.004045   -0.011060   -0.147307
N    -1.060213    0.781405   -0.001780   -0.002072   -0.006709   -0.087405
C     0.188597    1.438724   -0.073474   -0.002553   -0.008573   -0.113117
O    -2.423272   -1.063417    0.139759    0.000132    0.000361    0.007425
O     0.244598    2.644511   -0.204683   -0.000000   -0.000133    0.000051
H     1.933375   -1.536055    0.132659   -0.004956   -0.013798   -0.188506
H    -0.302827   -2.358220    0.044421    0.010353    0.031728    0.407038
H    -1.900090    1.328080   -0.723394    0.049074    0.144110    1.912145
H     2.326326    0.934384   -0.195267    0.005032    0.014192    0.188140
12
* Frequency(14)  699.2338
C     1.325468    0.512223   -0.118679    0.003648    0.010407    0.135735
C     1.115221   -0.814148    0.066767   -0.002762   -0.007179   -0.100719
N    -0.151902   -1.349778    0.067809    0.002536    0.007833    0.105282
C    -1.314256   -0.573929    0.126732   -0.004045   -0.011060   -0.147307
N    -1.060233    0.781341   -0.002611   -0.002072   -0.006709   -0.087405
C     0.188572    1.438643   -0.074550   -0.002553   -0.008573   -0.113117
O    -2.423271   -1.063413    0.139829    0.000132    0.000361    0.007425
O     0.244598    2.644509   -0.204682   -0.000000   -0.000133    0.000051
H     1.933328   -1.536186    0.130865   -0.004956   -0.013798   -0.188506
H    -0.302729   -2.357918    0.048294    0.010353    0.031728    0.407038
H    -1.899623    1.329451   -0.705201    0.049074    0.144110    1.912145
H     2.326373    0.934519   -0.193477    0.005032    0.014192    0.188140
12
* Frequency(14)  699.2338
C     1.325637    0.512704   -0.112397    0.003648    0.010407    0.135735
C     1.115093   -0.814480    0.062106   -0.002762   -0.007179   -0.100719
N    -0.151784   -1.349415    0.072681    0.002536    0.007833    0.105282
C    -1.314443   -0.574441    0.119914   -0.004045   -0.011060   -0.147307
N    -1.060329    0.781030   -0.006657   -0.002072   -0.006709   -0.087405
C     0.188454    1.438246   -0.079785   -0.002553   -0.008573   -0.113117
O    -2.423265   -1.063397    0.140173    0.000132    0.000361    0.007425
O     0.244598    2.644503   -0.204680   -0.000000   -0.000133    0.000051
H     1.933098   -1.536825    0.122141   -0.004956   -0.013798   -0.188506
H    -0.302250   -2.356450    0.067132    0.010353    0.031728    0.407038
H    -1.897352    1.336121   -0.616703    0.049074    0.144110    1.912145
H     2.326606    0.935176   -0.184770    0.005032    0.014192    0.188140
12
* Frequency(14)  699.2338
C     1.325922    0.513516   -0.101805    0.003648    0.010407    0.135735
C     1.114877   -0.815040    0.054246   -0.002762   -0.007179   -0.100719
N    -0.151587   -1.348804    0.080897    0.002536    0.007833    0.105282
C    -1.314759   -0.575304    0.108419   -0.004045   -0.011060   -0.147307
N    -1.060490    0.780507   -0.013477   -0.002072   -0.006709   -0.087405
C     0.188255    1.437577   -0.088612   -0.002553   -0.008573   -0.113117
O    -2.423255   -1.063368    0.140752    0.000132    0.000361    0.007425
O     0.244598    2.644493   -0.204676   -0.000000   -0.000133    0.000051
H     1.932712   -1.537901    0.107431   -0.004956   -0.013798   -0.188506
H    -0.301442   -2.353974    0.098895    0.010353    0.031728    0.407038
H    -1.893523    1.347367   -0.467491    0.049074    0.144110    1.912145
H     2.326999    0.936283   -0.170089    0.005032    0.014192    0.188140
12
* Frequency(14)  699.2338
C     1.326291    0.514571   -0.088051    0.003648    0.010407    0.135735
C     1.114597   -0.815768    0.044040   -0.002762   -0.007179   -0.100719
N    -0.151330   -1.348010    0.091565    0.002536    0.007833    0.105282
C    -1.315168   -0.576425    0.093493   -0.004045   -0.011060   -0.147307
N    -1.060700    0.779827   -0.022334   -0.002072   -0.006709   -0.087405
C     0.187996    1.436708   -0.100074   -0.002553   -0.008573   -0.113117
O    -2.423241   -1.063332    0.141505    0.000132    0.000361    0.007425
O     0.244598    2.644479   -0.204671   -0.000000   -0.000133    0.000051
H     1.932209   -1.539299    0.088330   -0.004956   -0.013798   -0.188506
H    -0.300393   -2.350759    0.140140    0.010353    0.031728    0.407038
H    -1.888550    1.361969   -0.273734    0.049074    0.144110    1.912145
H     2.327509    0.937721   -0.151024    0.005032    0.014192    0.188140
12
* Frequency(14)  699.2338
C     1.326706    0.515754   -0.072626    0.003648    0.010407    0.135735
C     1.114284   -0.816584    0.032594   -0.002762   -0.007179   -0.100719
N    -0.151041   -1.347120    0.103530    0.002536    0.007833    0.105282
C    -1.315628   -0.577682    0.076752   -0.004045   -0.011060   -0.147307
N    -1.060936    0.779065   -0.032267   -0.002072   -0.006709   -0.087405
C     0.187706    1.435734   -0.112929   -0.002553   -0.008573   -0.113117
O    -2.423226   -1.063291    0.142349    0.000132    0.000361    0.007425
O     0.244598    2.644464   -0.204665   -0.000000   -0.000133    0.000051
H     1.931646   -1.540867    0.066907   -0.004956   -0.013798   -0.188506
H    -0.299216   -2.347153    0.186398    0.010353    0.031728    0.407038
H    -1.882973    1.378347   -0.056429    0.049074    0.144110    1.912145
H     2.328081    0.939334   -0.129643    0.005032    0.014192    0.188140
