12
* (null), Energy   -1000.0000000
C     1.629965    0.315610   -0.065301   -0.084754    0.262353   -0.017593
C     1.417359   -1.016714    0.040627    0.048988   -0.026591    0.000729
N     0.152106   -1.547217    0.113051    0.170694   -0.095179    0.002811
C    -1.012934   -0.778188    0.084369   -0.069823    0.134068   -0.008285
N    -0.757957    0.578797   -0.024165   -0.120106   -0.256208    0.022412
C     0.490659    1.235340   -0.105671   -0.037638   -0.005718    0.001315
O    -2.120393   -1.263598    0.148925    0.043110    0.031689   -0.003492
O     0.547838    2.444022   -0.198224    0.045530    0.038706   -0.004065
H     2.234675   -1.741152    0.074482   -0.711226   -0.907636    0.087062
H     0.004476   -2.547394    0.191756   -0.735340    0.021448    0.017147
H    -1.579890    1.178069   -0.048486    0.752507    0.925591   -0.089374
H     2.631499    0.738614   -0.122607    0.290834   -0.612545    0.038632
12
* Frequency(25) 1377.1381
C     1.620333    0.345425   -0.067300   -0.084754    0.262353   -0.017593
C     1.422926   -1.019736    0.040710    0.048988   -0.026591    0.000729
N     0.171505   -1.558034    0.113371    0.170694   -0.095179    0.002811
C    -1.020869   -0.762952    0.083428   -0.069823    0.134068   -0.008285
N    -0.771606    0.549680   -0.021618   -0.120106   -0.256208    0.022412
C     0.486381    1.234690   -0.105521   -0.037638   -0.005718    0.001315
O    -2.115493   -1.259996    0.148528    0.043110    0.031689   -0.003492
O     0.553013    2.448421   -0.198686    0.045530    0.038706   -0.004065
H     2.153848   -1.844300    0.084376   -0.711226   -0.907636    0.087062
H    -0.079091   -2.544957    0.193704   -0.735340    0.021448    0.017147
H    -1.494371    1.283257   -0.058642    0.752507    0.925591   -0.089374
H     2.664551    0.669002   -0.118217    0.290834   -0.612545    0.038632
12
* Frequency(25) 1377.1381
C     1.611745    0.372009   -0.069083   -0.084754    0.262353   -0.017593
C     1.427890   -1.022431    0.040784    0.048988   -0.026591    0.000729
N     0.188801   -1.567678    0.113656    0.170694   -0.095179    0.002811
C    -1.027944   -0.749367    0.082588   -0.069823    0.134068   -0.008285
N    -0.783776    0.523719   -0.019347   -0.120106   -0.256208    0.022412
C     0.482567    1.234111   -0.105388   -0.037638   -0.005718    0.001315
O    -2.111125   -1.256785    0.148174    0.043110    0.031689   -0.003492
O     0.557626    2.452343   -0.199098    0.045530    0.038706   -0.004065
H     2.081779   -1.936270    0.093198   -0.711226   -0.907636    0.087062
H    -0.153603   -2.542784    0.195442   -0.735340    0.021448    0.017147
H    -1.418120    1.377047   -0.067699    0.752507    0.925591   -0.089374
H     2.694021    0.606933   -0.114302    0.290834   -0.612545    0.038632
12
* Frequency(25) 1377.1381
C     1.605131    0.392482   -0.070456   -0.084754    0.262353   -0.017593
C     1.431713   -1.024506    0.040841    0.048988   -0.026591    0.000729
N     0.202121   -1.575105    0.113875    0.170694   -0.095179    0.002811
C    -1.033393   -0.738905    0.081942   -0.069823    0.134068   -0.008285
N    -0.793149    0.503726   -0.017598   -0.120106   -0.256208    0.022412
C     0.479630    1.233665   -0.105286   -0.037638   -0.005718    0.001315
O    -2.107761   -1.254313    0.147902    0.043110    0.031689   -0.003492
O     0.561179    2.455363   -0.199415    0.045530    0.038706   -0.004065
H     2.026280   -2.007096    0.099991   -0.711226   -0.907636    0.087062
H    -0.210984   -2.541110    0.196780   -0.735340    0.021448    0.017147
H    -1.359399    1.449274   -0.074673    0.752507    0.925591   -0.089374
H     2.716716    0.559133   -0.111288    0.290834   -0.612545    0.038632
12
* Frequency(25) 1377.1381
C     1.601209    0.404624   -0.071270   -0.084754    0.262353   -0.017593
C     1.433980   -1.025736    0.040874    0.048988   -0.026591    0.000729
N     0.210021   -1.579510    0.114005    0.170694   -0.095179    0.002811
C    -1.036624   -0.732700    0.081558   -0.069823    0.134068   -0.008285
N    -0.798708    0.491868   -0.016561   -0.120106   -0.256208    0.022412
C     0.477888    1.233400   -0.105225   -0.037638   -0.005718    0.001315
O    -2.105766   -1.252846    0.147740    0.043110    0.031689   -0.003492
O     0.563286    2.457155   -0.199603    0.045530    0.038706   -0.004065
H     1.993363   -2.049103    0.104021   -0.711226   -0.907636    0.087062
H    -0.245017   -2.540117    0.197574   -0.735340    0.021448    0.017147
H    -1.324572    1.492112   -0.078809    0.752507    0.925591   -0.089374
H     2.730176    0.530784   -0.109500    0.290834   -0.612545    0.038632
12
* Frequency(25) 1377.1381
C     1.600403    0.407120   -0.071437   -0.084754    0.262353   -0.017593
C     1.434446   -1.025989    0.040881    0.048988   -0.026591    0.000729
N     0.211645   -1.580416    0.114032    0.170694   -0.095179    0.002811
C    -1.037289   -0.731424    0.081479   -0.069823    0.134068   -0.008285
N    -0.799850    0.489430   -0.016347   -0.120106   -0.256208    0.022412
C     0.477530    1.233345   -0.105212   -0.037638   -0.005718    0.001315
O    -2.105356   -1.252544    0.147707    0.043110    0.031689   -0.003492
O     0.563720    2.457523   -0.199642    0.045530    0.038706   -0.004065
H     1.986596   -2.057739    0.104849   -0.711226   -0.907636    0.087062
H    -0.252014   -2.539913    0.197737   -0.735340    0.021448    0.017147
H    -1.317412    1.500919   -0.079660    0.752507    0.925591   -0.089374
H     2.732943    0.524956   -0.109132    0.290834   -0.612545    0.038632
12
* Frequency(25) 1377.1381
C     1.602800    0.399700   -0.070940   -0.084754    0.262353   -0.017593
C     1.433061   -1.025237    0.040861    0.048988   -0.026591    0.000729
N     0.206817   -1.577724    0.113952    0.170694   -0.095179    0.002811
C    -1.035314   -0.735216    0.081714   -0.069823    0.134068   -0.008285
N    -0.796453    0.496677   -0.016981   -0.120106   -0.256208    0.022412
C     0.478595    1.233507   -0.105249   -0.037638   -0.005718    0.001315
O    -2.106575   -1.253441    0.147806    0.043110    0.031689   -0.003492
O     0.562432    2.456428   -0.199527    0.045530    0.038706   -0.004065
H     2.006712   -2.032068    0.102387   -0.711226   -0.907636    0.087062
H    -0.231215   -2.540520    0.197252   -0.735340    0.021448    0.017147
H    -1.338696    1.474740   -0.077132    0.752507    0.925591   -0.089374
H     2.724717    0.542281   -0.110225    0.290834   -0.612545    0.038632
12
* Frequency(25) 1377.1381
C     1.608141    0.383167   -0.069831   -0.084754    0.262353   -0.017593
C     1.429974   -1.023561    0.040815    0.048988   -0.026591    0.000729
N     0.196061   -1.571726    0.113775    0.170694   -0.095179    0.002811
C    -1.030914   -0.743665    0.082236   -0.069823    0.134068   -0.008285
N    -0.788884    0.512822   -0.018394   -0.120106   -0.256208    0.022412
C     0.480967    1.233868   -0.105332   -0.037638   -0.005718    0.001315
O    -2.109292   -1.255438    0.148026    0.043110    0.031689   -0.003492
O     0.559563    2.453989   -0.199270    0.045530    0.038706   -0.004065
H     2.051532   -1.974871    0.096900   -0.711226   -0.907636    0.087062
H    -0.184876   -2.541871    0.196171   -0.735340    0.021448    0.017147
H    -1.386117    1.416411   -0.071500    0.752507    0.925591   -0.089374
H     2.706390    0.580882   -0.112659    0.290834   -0.612545    0.038632
12
* Frequency(25) 1377.1381
C     1.615847    0.359313   -0.068231   -0.084754    0.262353   -0.017593
C     1.425520   -1.021144    0.040748    0.048988   -0.026591    0.000729
N     0.180541   -1.563072    0.113520    0.170694   -0.095179    0.002811
C    -1.024565   -0.755855    0.082989   -0.069823    0.134068   -0.008285
N    -0.777964    0.536117   -0.020431   -0.120106   -0.256208    0.022412
C     0.484389    1.234387   -0.105452   -0.037638   -0.005718    0.001315
O    -2.113211   -1.258319    0.148343    0.043110    0.031689   -0.003492
O     0.555423    2.450470   -0.198901    0.045530    0.038706   -0.004065
H     2.116198   -1.892347    0.088984   -0.711226   -0.907636    0.087062
H    -0.118018   -2.543821    0.194612   -0.735340    0.021448    0.017147
H    -1.454536    1.332255   -0.063374    0.752507    0.925591   -0.089374
H     2.679947    0.636575   -0.116172    0.290834   -0.612545    0.038632
12
* Frequency(25) 1377.1381
C     1.625082    0.330724   -0.066314   -0.084754    0.262353   -0.017593
C     1.420181   -1.018246    0.040669    0.048988   -0.026591    0.000729
N     0.161940   -1.552700    0.113213    0.170694   -0.095179    0.002811
C    -1.016957   -0.770464    0.083892   -0.069823    0.134068   -0.008285
N    -0.764876    0.564037   -0.022874   -0.120106   -0.256208    0.022412
C     0.488490    1.235010   -0.105595   -0.037638   -0.005718    0.001315
O    -2.117909   -1.261772    0.148724    0.043110    0.031689   -0.003492
O     0.550461    2.446252   -0.198458    0.045530    0.038706   -0.004065
H     2.193702   -1.793439    0.079497   -0.711226   -0.907636    0.087062
H    -0.037885   -2.546159    0.192744   -0.735340    0.021448    0.017147
H    -1.536539    1.231390   -0.053634    0.752507    0.925591   -0.089374
H     2.648254    0.703327   -0.120382    0.290834   -0.612545    0.038632
12
* Frequency(25) 1377.1381
C     1.634847    0.300496   -0.064287   -0.084754    0.262353   -0.017593
C     1.414537   -1.015182    0.040585    0.048988   -0.026591    0.000729
N     0.142273   -1.541734    0.112889    0.170694   -0.095179    0.002811
C    -1.008912   -0.785911    0.084847   -0.069823    0.134068   -0.008285
N    -0.751038    0.593557   -0.025456   -0.120106   -0.256208    0.022412
C     0.492827    1.235669   -0.105747   -0.037638   -0.005718    0.001315
O    -2.122876   -1.265423    0.149126    0.043110    0.031689   -0.003492
O     0.545216    2.441792   -0.197989    0.045530    0.038706   -0.004065
H     2.275647   -1.688864    0.069466   -0.711226   -0.907636    0.087062
H     0.046838   -2.548630    0.190768   -0.735340    0.021448    0.017147
H    -1.623240    1.124747   -0.043337    0.752507    0.925591   -0.089374
H     2.614745    0.773902   -0.124833    0.290834   -0.612545    0.038632
12
* Frequency(25) 1377.1381
C     1.644083    0.271907   -0.062370   -0.084754    0.262353   -0.017593
C     1.409199   -1.012285    0.040506    0.048988   -0.026591    0.000729
N     0.123672   -1.531362    0.112583    0.170694   -0.095179    0.002811
C    -1.001303   -0.800521    0.085750   -0.069823    0.134068   -0.008285
N    -0.737949    0.621476   -0.027898   -0.120106   -0.256208    0.022412
C     0.496928    1.236292   -0.105890   -0.037638   -0.005718    0.001315
O    -2.127574   -1.268877    0.149507    0.043110    0.031689   -0.003492
O     0.540254    2.437574   -0.197546    0.045530    0.038706   -0.004065
H     2.353152   -1.589956    0.059979   -0.711226   -0.907636    0.087062
H     0.126970   -2.550967    0.188899   -0.735340    0.021448    0.017147
H    -1.705244    1.023882   -0.033597    0.752507    0.925591   -0.089374
H     2.583052    0.840653   -0.129043    0.290834   -0.612545    0.038632
12
* Frequency(25) 1377.1381
C     1.651789    0.248053   -0.060771   -0.084754    0.262353   -0.017593
C     1.404744   -1.009867    0.040439    0.048988   -0.026591    0.000729
N     0.108152   -1.522708    0.112328    0.170694   -0.095179    0.002811
C    -0.994955   -0.812711    0.086503   -0.069823    0.134068   -0.008285
N    -0.727029    0.644771   -0.029936   -0.120106   -0.256208    0.022412
C     0.500351    1.236812   -0.106009   -0.037638   -0.005718    0.001315
O    -2.131494   -1.271758    0.149824    0.043110    0.031689   -0.003492
O     0.536114    2.434055   -0.197177    0.045530    0.038706   -0.004065
H     2.417818   -1.507432    0.052063   -0.711226   -0.907636    0.087062
H     0.193829   -2.552917    0.187340   -0.735340    0.021448    0.017147
H    -1.773663    0.939726   -0.025471    0.752507    0.925591   -0.089374
H     2.556608    0.896347   -0.132555    0.290834   -0.612545    0.038632
12
* Frequency(25) 1377.1381
C     1.657130    0.231520   -0.059662   -0.084754    0.262353   -0.017593
C     1.401657   -1.008191    0.040394    0.048988   -0.026591    0.000729
N     0.097395   -1.516710    0.112151    0.170694   -0.095179    0.002811
C    -0.990555   -0.821159    0.087025   -0.069823    0.134068   -0.008285
N    -0.719460    0.660917   -0.031348   -0.120106   -0.256208    0.022412
C     0.502723    1.237173   -0.106092   -0.037638   -0.005718    0.001315
O    -2.134210   -1.273755    0.150044    0.043110    0.031689   -0.003492
O     0.533245    2.431616   -0.196921    0.045530    0.038706   -0.004065
H     2.462638   -1.450236    0.046576   -0.711226   -0.907636    0.087062
H     0.240168   -2.554269    0.186260   -0.735340    0.021448    0.017147
H    -1.821084    0.881397   -0.019839    0.752507    0.925591   -0.089374
H     2.538281    0.934948   -0.134989    0.290834   -0.612545    0.038632
12
* Frequency(25) 1377.1381
C     1.659527    0.224100   -0.059165   -0.084754    0.262353   -0.017593
C     1.400272   -1.007439    0.040373    0.048988   -0.026591    0.000729
N     0.092567   -1.514018    0.112071    0.170694   -0.095179    0.002811
C    -0.988580   -0.824951    0.087259   -0.069823    0.134068   -0.008285
N    -0.716063    0.668163   -0.031982   -0.120106   -0.256208    0.022412
C     0.503787    1.237334   -0.106129   -0.037638   -0.005718    0.001315
O    -2.135430   -1.274651    0.150143    0.043110    0.031689   -0.003492
O     0.531957    2.430521   -0.196806    0.045530    0.038706   -0.004065
H     2.482754   -1.424564    0.044114   -0.711226   -0.907636    0.087062
H     0.260966   -2.554875    0.185775   -0.735340    0.021448    0.017147
H    -1.842368    0.855218   -0.017311    0.752507    0.925591   -0.089374
H     2.530055    0.952273   -0.136082    0.290834   -0.612545    0.038632
12
* Frequency(25) 1377.1381
C     1.658721    0.226596   -0.059332   -0.084754    0.262353   -0.017593
C     1.400738   -1.007692    0.040380    0.048988   -0.026591    0.000729
N     0.094191   -1.514924    0.112098    0.170694   -0.095179    0.002811
C    -0.989244   -0.823676    0.087180   -0.069823    0.134068   -0.008285
N    -0.717206    0.665726   -0.031769   -0.120106   -0.256208    0.022412
C     0.503429    1.237280   -0.106117   -0.037638   -0.005718    0.001315
O    -2.135020   -1.274350    0.150110    0.043110    0.031689   -0.003492
O     0.532391    2.430890   -0.196844    0.045530    0.038706   -0.004065
H     2.475987   -1.433200    0.044942   -0.711226   -0.907636    0.087062
H     0.253970   -2.554671    0.185938   -0.735340    0.021448    0.017147
H    -1.835208    0.864025   -0.018162    0.752507    0.925591   -0.089374
H     2.532822    0.946445   -0.135715    0.290834   -0.612545    0.038632
12
* Frequency(25) 1377.1381
C     1.654798    0.238738   -0.060146   -0.084754    0.262353   -0.017593
C     1.403005   -1.008923    0.040414    0.048988   -0.026591    0.000729
N     0.102091   -1.519329    0.112228    0.170694   -0.095179    0.002811
C    -0.992476   -0.817471    0.086797   -0.069823    0.134068   -0.008285
N    -0.722765    0.653868   -0.030732   -0.120106   -0.256208    0.022412
C     0.501687    1.237015   -0.106056   -0.037638   -0.005718    0.001315
O    -2.133024   -1.272883    0.149948    0.043110    0.031689   -0.003492
O     0.534498    2.432681   -0.197033    0.045530    0.038706   -0.004065
H     2.443070   -1.475207    0.048972   -0.711226   -0.907636    0.087062
H     0.219937   -2.553679    0.186732   -0.735340    0.021448    0.017147
H    -1.800380    0.906863   -0.022298    0.752507    0.925591   -0.089374
H     2.546282    0.918095   -0.133927    0.290834   -0.612545    0.038632
12
* Frequency(25) 1377.1381
C     1.648185    0.259211   -0.061519   -0.084754    0.262353   -0.017593
C     1.406828   -1.010998    0.040470    0.048988   -0.026591    0.000729
N     0.115411   -1.526756    0.112447    0.170694   -0.095179    0.002811
C    -0.997924   -0.807009    0.086150   -0.069823    0.134068   -0.008285
N    -0.732137    0.633875   -0.028983   -0.120106   -0.256208    0.022412
C     0.498750    1.236569   -0.105953   -0.037638   -0.005718    0.001315
O    -2.129660   -1.270410    0.149676    0.043110    0.031689   -0.003492
O     0.538051    2.435701   -0.197350    0.045530    0.038706   -0.004065
H     2.387570   -1.546033    0.055765   -0.711226   -0.907636    0.087062
H     0.162556   -2.552005    0.188070   -0.735340    0.021448    0.017147
H    -1.741659    0.979090   -0.029272    0.752507    0.925591   -0.089374
H     2.568977    0.870296   -0.130912    0.290834   -0.612545    0.038632
12
* Frequency(25) 1377.1381
C     1.639597    0.285795   -0.063302   -0.084754    0.262353   -0.017593
C     1.411792   -1.013692    0.040544    0.048988   -0.026591    0.000729
N     0.132708   -1.536400    0.112732    0.170694   -0.095179    0.002811
C    -1.004999   -0.793424    0.085311   -0.069823    0.134068   -0.008285
N    -0.744307    0.607914   -0.026712   -0.120106   -0.256208    0.022412
C     0.494936    1.235990   -0.105820   -0.037638   -0.005718    0.001315
O    -2.125292   -1.267199    0.149322    0.043110    0.031689   -0.003492
O     0.542664    2.439623   -0.197762    0.045530    0.038706   -0.004065
H     2.315502   -1.638004    0.064587   -0.711226   -0.907636    0.087062
H     0.088044   -2.549832    0.189807   -0.735340    0.021448    0.017147
H    -1.665408    1.072880   -0.038329    0.752507    0.925591   -0.089374
H     2.598447    0.808227   -0.126997    0.290834   -0.612545    0.038632
12
* Frequency(25) 1377.1381
C     1.629965    0.315610   -0.065301   -0.084754    0.262353   -0.017593
C     1.417359   -1.016714    0.040627    0.048988   -0.026591    0.000729
N     0.152106   -1.547217    0.113051    0.170694   -0.095179    0.002811
C    -1.012934   -0.778188    0.084369   -0.069823    0.134068   -0.008285
N    -0.757957    0.578797   -0.024165   -0.120106   -0.256208    0.022412
C     0.490659    1.235340   -0.105671   -0.037638   -0.005718    0.001315
O    -2.120393   -1.263598    0.148925    0.043110    0.031689   -0.003492
O     0.547838    2.444022   -0.198224    0.045530    0.038706   -0.004065
H     2.234675   -1.741152    0.074482   -0.711226   -0.907636    0.087062
H     0.004476   -2.547394    0.191756   -0.735340    0.021448    0.017147
H    -1.579890    1.178069   -0.048486    0.752507    0.925591   -0.089374
H     2.631499    0.738614   -0.122607    0.290834   -0.612545    0.038632
