12
* (null), Energy   -1000.0000000
C     1.629965    0.315610   -0.065301    0.061853    0.786738   -0.060887
C     1.417359   -1.016714    0.040627   -0.337616   -0.918870    0.077952
N     0.152106   -1.547217    0.113051    0.027513    0.220341   -0.017314
C    -1.012934   -0.778188    0.084369    0.109965   -0.188932    0.011401
N    -0.757957    0.578797   -0.024165    0.022175    0.100767   -0.008146
C     0.490659    1.235340   -0.105671   -0.045347    0.130336   -0.008694
O    -2.120393   -1.263598    0.148925   -0.044071    0.012915    0.000160
O     0.547838    2.444022   -0.198224    0.016586   -0.187349    0.013710
H     2.234675   -1.741152    0.074482    1.096265    0.530242   -0.068270
H     0.004476   -2.547394    0.191756    0.582328    0.164515   -0.027456
H    -1.579890    1.178069   -0.048486   -0.013463    0.057911   -0.004003
H     2.631499    0.738614   -0.122607    0.596588   -0.173452   -0.002228
12
* Frequency(29) 1689.0163
C     1.636994    0.405019   -0.072220    0.061853    0.786738   -0.060887
C     1.378991   -1.121139    0.049486   -0.337616   -0.918870    0.077952
N     0.155233   -1.522176    0.111084    0.027513    0.220341   -0.017314
C    -1.000437   -0.799659    0.085665    0.109965   -0.188932    0.011401
N    -0.755437    0.590249   -0.025091    0.022175    0.100767   -0.008146
C     0.485505    1.250152   -0.106659   -0.045347    0.130336   -0.008694
O    -2.125401   -1.262130    0.148943   -0.044071    0.012915    0.000160
O     0.549723    2.422731   -0.196666    0.016586   -0.187349    0.013710
H     2.359260   -1.680892    0.066723    1.096265    0.530242   -0.068270
H     0.070655   -2.528698    0.188636    0.582328    0.164515   -0.027456
H    -1.581420    1.184650   -0.048940   -0.013463    0.057911   -0.004003
H     2.699298    0.718902   -0.122860    0.596588   -0.173452   -0.002228
12
* Frequency(29) 1689.0163
C     1.643262    0.484739   -0.078390    0.061853    0.786738   -0.060887
C     1.344780   -1.214248    0.057385   -0.337616   -0.918870    0.077952
N     0.158021   -1.499849    0.109329    0.027513    0.220341   -0.017314
C    -0.989295   -0.818803    0.086820    0.109965   -0.188932    0.011401
N    -0.753190    0.600459   -0.025916    0.022175    0.100767   -0.008146
C     0.480910    1.263359   -0.107540   -0.045347    0.130336   -0.008694
O    -2.129867   -1.260821    0.148959   -0.044071    0.012915    0.000160
O     0.551404    2.403747   -0.195276    0.016586   -0.187349    0.013710
H     2.470344   -1.627163    0.059805    1.096265    0.530242   -0.068270
H     0.129662   -2.512028    0.185853    0.582328    0.164515   -0.027456
H    -1.582784    1.190518   -0.049346   -0.013463    0.057911   -0.004003
H     2.759750    0.701326   -0.123086    0.596588   -0.173452   -0.002228
12
* Frequency(29) 1689.0163
C     1.648089    0.546131   -0.083141    0.061853    0.786738   -0.060887
C     1.318435   -1.285951    0.063468   -0.337616   -0.918870    0.077952
N     0.160168   -1.482655    0.107978    0.027513    0.220341   -0.017314
C    -0.980714   -0.833547    0.087710    0.109965   -0.188932    0.011401
N    -0.751459    0.608323   -0.026552    0.022175    0.100767   -0.008146
C     0.477372    1.273530   -0.108218   -0.045347    0.130336   -0.008694
O    -2.133306   -1.259814    0.148972   -0.044071    0.012915    0.000160
O     0.552698    2.389127   -0.194207    0.016586   -0.187349    0.013710
H     2.555890   -1.585786    0.054478    1.096265    0.530242   -0.068270
H     0.175103   -2.499190    0.183711    0.582328    0.164515   -0.027456
H    -1.583835    1.195037   -0.049659   -0.013463    0.057911   -0.004003
H     2.806304    0.687791   -0.123260    0.596588   -0.173452   -0.002228
12
* Frequency(29) 1689.0163
C     1.650951    0.582542   -0.085959    0.061853    0.786738   -0.060887
C     1.302809   -1.328478    0.067075   -0.337616   -0.918870    0.077952
N     0.161441   -1.472458    0.107177    0.027513    0.220341   -0.017314
C    -0.975624   -0.842291    0.088237    0.109965   -0.188932    0.011401
N    -0.750433    0.612986   -0.026929    0.022175    0.100767   -0.008146
C     0.475273    1.279562   -0.108621   -0.045347    0.130336   -0.008694
O    -2.135346   -1.259216    0.148979   -0.044071    0.012915    0.000160
O     0.553466    2.380456   -0.193572    0.016586   -0.187349    0.013710
H     2.606627   -1.561246    0.051318    1.096265    0.530242   -0.068270
H     0.202055   -2.491576    0.182440    0.582328    0.164515   -0.027456
H    -1.584458    1.197717   -0.049844   -0.013463    0.057911   -0.004003
H     2.833915    0.679764   -0.123363    0.596588   -0.173452   -0.002228
12
* Frequency(29) 1689.0163
C     1.651540    0.590028   -0.086538    0.061853    0.786738   -0.060887
C     1.299597   -1.337220    0.067817   -0.337616   -0.918870    0.077952
N     0.161703   -1.470361    0.107012    0.027513    0.220341   -0.017314
C    -0.974578   -0.844088    0.088346    0.109965   -0.188932    0.011401
N    -0.750222    0.613945   -0.027006    0.022175    0.100767   -0.008146
C     0.474841    1.280802   -0.108703   -0.045347    0.130336   -0.008694
O    -2.135765   -1.259093    0.148981   -0.044071    0.012915    0.000160
O     0.553624    2.378674   -0.193442    0.016586   -0.187349    0.013710
H     2.617057   -1.556201    0.050669    1.096265    0.530242   -0.068270
H     0.207595   -2.490011    0.182179    0.582328    0.164515   -0.027456
H    -1.584586    1.198268   -0.049882   -0.013463    0.057911   -0.004003
H     2.839592    0.678113   -0.123385    0.596588   -0.173452   -0.002228
12
* Frequency(29) 1689.0163
C     1.649790    0.567776   -0.084816    0.061853    0.786738   -0.060887
C     1.309146   -1.311231    0.065612   -0.337616   -0.918870    0.077952
N     0.160925   -1.476593    0.107502    0.027513    0.220341   -0.017314
C    -0.977688   -0.838745    0.088023    0.109965   -0.188932    0.011401
N    -0.750849    0.611095   -0.026776    0.022175    0.100767   -0.008146
C     0.476124    1.277115   -0.108457   -0.045347    0.130336   -0.008694
O    -2.134518   -1.259458    0.148976   -0.044071    0.012915    0.000160
O     0.553155    2.383973   -0.193829    0.016586   -0.187349    0.013710
H     2.586051   -1.571198    0.052600    1.096265    0.530242   -0.068270
H     0.191125   -2.494664    0.182955    0.582328    0.164515   -0.027456
H    -1.584205    1.196630   -0.049769   -0.013463    0.057911   -0.004003
H     2.822718    0.683019   -0.123321    0.596588   -0.173452   -0.002228
12
* Frequency(29) 1689.0163
C     1.645892    0.518198   -0.080979    0.061853    0.786738   -0.060887
C     1.330422   -1.253326    0.060700   -0.337616   -0.918870    0.077952
N     0.159191   -1.490479    0.108593    0.027513    0.220341   -0.017314
C    -0.984618   -0.826839    0.087305    0.109965   -0.188932    0.011401
N    -0.752247    0.604745   -0.026262    0.022175    0.100767   -0.008146
C     0.478982    1.268902   -0.107910   -0.045347    0.130336   -0.008694
O    -2.131741   -1.260272    0.148966   -0.044071    0.012915    0.000160
O     0.552109    2.395779   -0.194693    0.016586   -0.187349    0.013710
H     2.516967   -1.604612    0.056902    1.096265    0.530242   -0.068270
H     0.154428   -2.505031    0.184686    0.582328    0.164515   -0.027456
H    -1.583357    1.192981   -0.049516   -0.013463    0.057911   -0.004003
H     2.785122    0.693950   -0.123181    0.596588   -0.173452   -0.002228
12
* Frequency(29) 1689.0163
C     1.640269    0.446666   -0.075444    0.061853    0.786738   -0.060887
C     1.361118   -1.169781    0.053612   -0.337616   -0.918870    0.077952
N     0.156689   -1.510512    0.110167    0.027513    0.220341   -0.017314
C    -0.994616   -0.809660    0.086268    0.109965   -0.188932    0.011401
N    -0.754263    0.595583   -0.025522    0.022175    0.100767   -0.008146
C     0.483105    1.257052   -0.107119   -0.045347    0.130336   -0.008694
O    -2.127734   -1.261446    0.148952   -0.044071    0.012915    0.000160
O     0.550601    2.412813   -0.195940    0.016586   -0.187349    0.013710
H     2.417293   -1.652823    0.063109    1.096265    0.530242   -0.068270
H     0.101482   -2.519989    0.187182    0.582328    0.164515   -0.027456
H    -1.582133    1.187716   -0.049152   -0.013463    0.057911   -0.004003
H     2.730880    0.709720   -0.122978    0.596588   -0.173452   -0.002228
12
* Frequency(29) 1689.0163
C     1.633528    0.360932   -0.068808    0.061853    0.786738   -0.060887
C     1.397910   -1.069649    0.045118   -0.337616   -0.918870    0.077952
N     0.153691   -1.534524    0.112054    0.027513    0.220341   -0.017314
C    -1.006599   -0.789072    0.085026    0.109965   -0.188932    0.011401
N    -0.756679    0.584602   -0.024634    0.022175    0.100767   -0.008146
C     0.488046    1.242848   -0.106172   -0.045347    0.130336   -0.008694
O    -2.122932   -1.262854    0.148934   -0.044071    0.012915    0.000160
O     0.548794    2.433229   -0.197434    0.016586   -0.187349    0.013710
H     2.297829   -1.710605    0.070549    1.096265    0.530242   -0.068270
H     0.038023   -2.537917    0.190174    0.582328    0.164515   -0.027456
H    -1.580665    1.181405   -0.048716   -0.013463    0.057911   -0.004003
H     2.665867    0.728622   -0.122736    0.596588   -0.173452   -0.002228
12
* Frequency(29) 1689.0163
C     1.626402    0.270287   -0.061793    0.061853    0.786738   -0.060887
C     1.436808   -0.963780    0.036136   -0.337616   -0.918870    0.077952
N     0.150521   -1.559910    0.114049    0.027513    0.220341   -0.017314
C    -1.019269   -0.767304    0.083713    0.109965   -0.188932    0.011401
N    -0.759234    0.572992   -0.023695    0.022175    0.100767   -0.008146
C     0.493271    1.227831   -0.105170   -0.045347    0.130336   -0.008694
O    -2.117854   -1.264342    0.148916   -0.044071    0.012915    0.000160
O     0.546883    2.454815   -0.199013    0.016586   -0.187349    0.013710
H     2.171521   -1.771698    0.078414    1.096265    0.530242   -0.068270
H    -0.029070   -2.556872    0.193337    0.582328    0.164515   -0.027456
H    -1.579114    1.174732   -0.048255   -0.013463    0.057911   -0.004003
H     2.597131    0.748606   -0.122479    0.596588   -0.173452   -0.002228
12
* Frequency(29) 1689.0163
C     1.619661    0.184554   -0.055158    0.061853    0.786738   -0.060887
C     1.473600   -0.863647    0.027642   -0.337616   -0.918870    0.077952
N     0.147523   -1.583922    0.115936    0.027513    0.220341   -0.017314
C    -1.031252   -0.746715    0.082470    0.109965   -0.188932    0.011401
N    -0.761651    0.562011   -0.022808    0.022175    0.100767   -0.008146
C     0.498213    1.213628   -0.104223   -0.045347    0.130336   -0.008694
O    -2.113051   -1.265749    0.148898   -0.044071    0.012915    0.000160
O     0.545075    2.475231   -0.200507    0.016586   -0.187349    0.013710
H     2.052057   -1.829480    0.085854    1.096265    0.530242   -0.068270
H    -0.092529   -2.574799    0.196329    0.582328    0.164515   -0.027456
H    -1.577647    1.168422   -0.047819   -0.013463    0.057911   -0.004003
H     2.532119    0.767508   -0.122236    0.596588   -0.173452   -0.002228
12
* Frequency(29) 1689.0163
C     1.614038    0.113022   -0.049622    0.061853    0.786738   -0.060887
C     1.504296   -0.780102    0.020554   -0.337616   -0.918870    0.077952
N     0.145021   -1.603955    0.117510    0.027513    0.220341   -0.017314
C    -1.041250   -0.729537    0.081434    0.109965   -0.188932    0.011401
N    -0.763667    0.552849   -0.022067    0.022175    0.100767   -0.008146
C     0.502336    1.201778   -0.103432   -0.045347    0.130336   -0.008694
O    -2.109044   -1.266924    0.148884   -0.044071    0.012915    0.000160
O     0.543567    2.492265   -0.201754    0.016586   -0.187349    0.013710
H     1.952383   -1.877691    0.092061    1.096265    0.530242   -0.068270
H    -0.145475   -2.589757    0.198826    0.582328    0.164515   -0.027456
H    -1.576423    1.163156   -0.047455   -0.013463    0.057911   -0.004003
H     2.477876    0.783279   -0.122033    0.596588   -0.173452   -0.002228
12
* Frequency(29) 1689.0163
C     1.610140    0.063444   -0.045785    0.061853    0.786738   -0.060887
C     1.525572   -0.722197    0.015642   -0.337616   -0.918870    0.077952
N     0.143288   -1.617841    0.118601    0.027513    0.220341   -0.017314
C    -1.048180   -0.717631    0.080715    0.109965   -0.188932    0.011401
N    -0.765064    0.546499   -0.021554    0.022175    0.100767   -0.008146
C     0.505193    1.193564   -0.102884   -0.045347    0.130336   -0.008694
O    -2.106267   -1.267737    0.148873   -0.044071    0.012915    0.000160
O     0.542522    2.504071   -0.202618    0.016586   -0.187349    0.013710
H     1.883299   -1.911105    0.096363    1.096265    0.530242   -0.068270
H    -0.182172   -2.600125    0.200556    0.582328    0.164515   -0.027456
H    -1.575574    1.159507   -0.047202   -0.013463    0.057911   -0.004003
H     2.440281    0.794209   -0.121893    0.596588   -0.173452   -0.002228
12
* Frequency(29) 1689.0163
C     1.608390    0.041192   -0.044063    0.061853    0.786738   -0.060887
C     1.535121   -0.696208    0.013437   -0.337616   -0.918870    0.077952
N     0.142509   -1.624073    0.119090    0.027513    0.220341   -0.017314
C    -1.051290   -0.712287    0.080393    0.109965   -0.188932    0.011401
N    -0.765691    0.543649   -0.021323    0.022175    0.100767   -0.008146
C     0.506476    1.189878   -0.102638   -0.045347    0.130336   -0.008694
O    -2.105020   -1.268103    0.148869   -0.044071    0.012915    0.000160
O     0.542053    2.509370   -0.203006    0.016586   -0.187349    0.013710
H     1.852292   -1.926103    0.098294    1.096265    0.530242   -0.068270
H    -0.198642   -2.604778    0.201333    0.582328    0.164515   -0.027456
H    -1.575194    1.157869   -0.047089   -0.013463    0.057911   -0.004003
H     2.423407    0.799115   -0.121830    0.596588   -0.173452   -0.002228
12
* Frequency(29) 1689.0163
C     1.608979    0.048678   -0.044643    0.061853    0.786738   -0.060887
C     1.531909   -0.704951    0.014179   -0.337616   -0.918870    0.077952
N     0.142771   -1.621976    0.118926    0.027513    0.220341   -0.017314
C    -1.050244   -0.714085    0.080501    0.109965   -0.188932    0.011401
N    -0.765480    0.544608   -0.021401    0.022175    0.100767   -0.008146
C     0.506044    1.191118   -0.102721   -0.045347    0.130336   -0.008694
O    -2.105440   -1.267980    0.148870   -0.044071    0.012915    0.000160
O     0.542211    2.507588   -0.202875    0.016586   -0.187349    0.013710
H     1.862723   -1.921058    0.097645    1.096265    0.530242   -0.068270
H    -0.193102   -2.603213    0.201071    0.582328    0.164515   -0.027456
H    -1.575322    1.158420   -0.047127   -0.013463    0.057911   -0.004003
H     2.429083    0.797465   -0.121851    0.596588   -0.173452   -0.002228
12
* Frequency(29) 1689.0163
C     1.611841    0.085089   -0.047461    0.061853    0.786738   -0.060887
C     1.516283   -0.747478    0.017787   -0.337616   -0.918870    0.077952
N     0.144045   -1.611779    0.118124    0.027513    0.220341   -0.017314
C    -1.045155   -0.722829    0.081029    0.109965   -0.188932    0.011401
N    -0.764454    0.549271   -0.021778    0.022175    0.100767   -0.008146
C     0.503946    1.197150   -0.103123   -0.045347    0.130336   -0.008694
O    -2.107479   -1.267382    0.148878   -0.044071    0.012915    0.000160
O     0.542979    2.498917   -0.202241    0.016586   -0.187349    0.013710
H     1.913460   -1.896517    0.094485    1.096265    0.530242   -0.068270
H    -0.166151   -2.595598    0.199801    0.582328    0.164515   -0.027456
H    -1.575945    1.161100   -0.047312   -0.013463    0.057911   -0.004003
H     2.456694    0.789437   -0.121954    0.596588   -0.173452   -0.002228
12
* Frequency(29) 1689.0163
C     1.616668    0.146481   -0.052212    0.061853    0.786738   -0.060887
C     1.489938   -0.819181    0.023869   -0.337616   -0.918870    0.077952
N     0.146192   -1.594585    0.116773    0.027513    0.220341   -0.017314
C    -1.036574   -0.737572    0.081918    0.109965   -0.188932    0.011401
N    -0.762724    0.557135   -0.022414    0.022175    0.100767   -0.008146
C     0.500407    1.207321   -0.103802   -0.045347    0.130336   -0.008694
O    -2.110918   -1.266374    0.148890   -0.044071    0.012915    0.000160
O     0.544273    2.484297   -0.201171    0.016586   -0.187349    0.013710
H     1.999006   -1.855140    0.089158    1.096265    0.530242   -0.068270
H    -0.120709   -2.582761    0.197658    0.582328    0.164515   -0.027456
H    -1.576995    1.165619   -0.047625   -0.013463    0.057911   -0.004003
H     2.503248    0.775902   -0.122128    0.596588   -0.173452   -0.002228
12
* Frequency(29) 1689.0163
C     1.622936    0.226201   -0.058381    0.061853    0.786738   -0.060887
C     1.455727   -0.912289    0.031768   -0.337616   -0.918870    0.077952
N     0.148979   -1.572258    0.115019    0.027513    0.220341   -0.017314
C    -1.025431   -0.756717    0.083074    0.109965   -0.188932    0.011401
N    -0.760477    0.567345   -0.023239    0.022175    0.100767   -0.008146
C     0.495812    1.220528   -0.104683   -0.045347    0.130336   -0.008694
O    -2.115384   -1.265066    0.148907   -0.044071    0.012915    0.000160
O     0.545954    2.465313   -0.199782    0.016586   -0.187349    0.013710
H     2.110090   -1.801411    0.082240    1.096265    0.530242   -0.068270
H    -0.061702   -2.566091    0.194876    0.582328    0.164515   -0.027456
H    -1.578360    1.171487   -0.048031   -0.013463    0.057911   -0.004003
H     2.563700    0.758326   -0.122354    0.596588   -0.173452   -0.002228
12
* Frequency(29) 1689.0163
C     1.629965    0.315610   -0.065301    0.061853    0.786738   -0.060887
C     1.417359   -1.016714    0.040627   -0.337616   -0.918870    0.077952
N     0.152106   -1.547217    0.113051    0.027513    0.220341   -0.017314
C    -1.012934   -0.778188    0.084369    0.109965   -0.188932    0.011401
N    -0.757957    0.578797   -0.024165    0.022175    0.100767   -0.008146
C     0.490659    1.235340   -0.105671   -0.045347    0.130336   -0.008694
O    -2.120393   -1.263598    0.148925   -0.044071    0.012915    0.000160
O     0.547838    2.444022   -0.198224    0.016586   -0.187349    0.013710
H     2.234675   -1.741152    0.074482    1.096265    0.530242   -0.068270
H     0.004476   -2.547394    0.191756    0.582328    0.164515   -0.027456
H    -1.579890    1.178069   -0.048486   -0.013463    0.057911   -0.004003
H     2.631499    0.738614   -0.122607    0.596588   -0.173452   -0.002228
