12
* (null), Energy   -1000.0000000
C     1.629965    0.315610   -0.065301   -0.013615    0.041689   -0.002777
C     1.417359   -1.016714    0.040627    0.027981    0.013682   -0.001773
N     0.152106   -1.547217    0.113051   -0.226016   -0.038802    0.008768
C    -1.012934   -0.778188    0.084369    1.259152    0.594176   -0.077101
N    -0.757957    0.578797   -0.024165   -0.156218   -0.143955    0.014890
C     0.490659    1.235340   -0.105671    0.016483   -0.269283    0.019876
O    -2.120393   -1.263598    0.148925   -0.726647   -0.321498    0.042787
O     0.547838    2.444022   -0.198224    0.012560    0.179331   -0.013824
H     2.234675   -1.741152    0.074482    0.011755    0.006545   -0.000832
H     0.004476   -2.547394    0.191756    0.871808   -0.184797   -0.008192
H    -1.579890    1.178069   -0.048486    0.353753    0.533131   -0.049249
H     2.631499    0.738614   -0.122607    0.036900   -0.089960    0.005902
12
* Frequency(31) 1859.2552
C     1.628418    0.320348   -0.065616   -0.013615    0.041689   -0.002777
C     1.420539   -1.015159    0.040426    0.027981    0.013682   -0.001773
N     0.126421   -1.551627    0.114048   -0.226016   -0.038802    0.008768
C    -0.869838   -0.710663    0.075607    1.259152    0.594176   -0.077101
N    -0.775710    0.562437   -0.022473   -0.156218   -0.143955    0.014890
C     0.492532    1.204737   -0.103412    0.016483   -0.269283    0.019876
O    -2.202972   -1.300134    0.153787   -0.726647   -0.321498    0.042787
O     0.549266    2.464402   -0.199795    0.012560    0.179331   -0.013824
H     2.236011   -1.740408    0.074387    0.011755    0.006545   -0.000832
H     0.103553   -2.568396    0.190825    0.871808   -0.184797   -0.008192
H    -1.539688    1.238656   -0.054082    0.353753    0.533131   -0.049249
H     2.635693    0.728391   -0.121936    0.036900   -0.089960    0.005902
12
* Frequency(31) 1859.2552
C     1.627038    0.324572   -0.065898   -0.013615    0.041689   -0.002777
C     1.423374   -1.013773    0.040246    0.027981    0.013682   -0.001773
N     0.103519   -1.555558    0.114936   -0.226016   -0.038802    0.008768
C    -0.742249   -0.650455    0.067795    1.259152    0.594176   -0.077101
N    -0.791540    0.547850   -0.020964   -0.156218   -0.143955    0.014890
C     0.494202    1.177451   -0.101398    0.016483   -0.269283    0.019876
O    -2.276603   -1.332712    0.158123   -0.726647   -0.321498    0.042787
O     0.550539    2.482574   -0.201195    0.012560    0.179331   -0.013824
H     2.237202   -1.739745    0.074303    0.011755    0.006545   -0.000832
H     0.191893   -2.587121    0.189995    0.871808   -0.184797   -0.008192
H    -1.503842    1.292678   -0.059073    0.353753    0.533131   -0.049249
H     2.639432    0.719275   -0.121338    0.036900   -0.089960    0.005902
12
* Frequency(31) 1859.2552
C     1.625976    0.327825   -0.066114   -0.013615    0.041689   -0.002777
C     1.425558   -1.012705    0.040108    0.027981    0.013682   -0.001773
N     0.085882   -1.558586    0.115621   -0.226016   -0.038802    0.008768
C    -0.643992   -0.604089    0.061778    1.259152    0.594176   -0.077101
N    -0.803730    0.536617   -0.019802   -0.156218   -0.143955    0.014890
C     0.495488    1.156438   -0.099847    0.016483   -0.269283    0.019876
O    -2.333306   -1.357799    0.161462   -0.726647   -0.321498    0.042787
O     0.551519    2.496568   -0.202274    0.012560    0.179331   -0.013824
H     2.238119   -1.739234    0.074238    0.011755    0.006545   -0.000832
H     0.259923   -2.601541    0.189355    0.871808   -0.184797   -0.008192
H    -1.476237    1.334280   -0.062916    0.353753    0.533131   -0.049249
H     2.642311    0.712255   -0.120878    0.036900   -0.089960    0.005902
12
* Frequency(31) 1859.2552
C     1.625346    0.329755   -0.066243   -0.013615    0.041689   -0.002777
C     1.426853   -1.012072    0.040026    0.027981    0.013682   -0.001773
N     0.075421   -1.560382    0.116026   -0.226016   -0.038802    0.008768
C    -0.585716   -0.576590    0.058210    1.259152    0.594176   -0.077101
N    -0.810960    0.529954   -0.019113   -0.156218   -0.143955    0.014890
C     0.496251    1.143975   -0.098927    0.016483   -0.269283    0.019876
O    -2.366937   -1.372679    0.163442   -0.726647   -0.321498    0.042787
O     0.552100    2.504867   -0.202914    0.012560    0.179331   -0.013824
H     2.238663   -1.738931    0.074199    0.011755    0.006545   -0.000832
H     0.300272   -2.610094    0.188976    0.871808   -0.184797   -0.008192
H    -1.459865    1.358955   -0.065195    0.353753    0.533131   -0.049249
H     2.644019    0.708092   -0.120605    0.036900   -0.089960    0.005902
12
* Frequency(31) 1859.2552
C     1.625216    0.330151   -0.066269   -0.013615    0.041689   -0.002777
C     1.427119   -1.011942    0.040009    0.027981    0.013682   -0.001773
N     0.073271   -1.560751    0.116110   -0.226016   -0.038802    0.008768
C    -0.573736   -0.570937    0.057476    1.259152    0.594176   -0.077101
N    -0.812446    0.528585   -0.018971   -0.156218   -0.143955    0.014890
C     0.496408    1.141413   -0.098738    0.016483   -0.269283    0.019876
O    -2.373850   -1.375738    0.163849   -0.726647   -0.321498    0.042787
O     0.552220    2.506574   -0.203045    0.012560    0.179331   -0.013824
H     2.238775   -1.738869    0.074191    0.011755    0.006545   -0.000832
H     0.308567   -2.611852    0.188898    0.871808   -0.184797   -0.008192
H    -1.456499    1.364027   -0.065664    0.353753    0.533131   -0.049249
H     2.644370    0.707236   -0.120548    0.036900   -0.089960    0.005902
12
* Frequency(31) 1859.2552
C     1.625601    0.328972   -0.066191   -0.013615    0.041689   -0.002777
C     1.426328   -1.012329    0.040059    0.027981    0.013682   -0.001773
N     0.079663   -1.559654    0.115862   -0.226016   -0.038802    0.008768
C    -0.609350   -0.587742    0.059657    1.259152    0.594176   -0.077101
N    -0.808028    0.532656   -0.019392   -0.156218   -0.143955    0.014890
C     0.495942    1.149029   -0.099300    0.016483   -0.269283    0.019876
O    -2.353298   -1.366644    0.162639   -0.726647   -0.321498    0.042787
O     0.551864    2.501501   -0.202654    0.012560    0.179331   -0.013824
H     2.238443   -1.739054    0.074215    0.011755    0.006545   -0.000832
H     0.283909   -2.606626    0.189130    0.871808   -0.184797   -0.008192
H    -1.466505    1.348948   -0.064271    0.353753    0.533131   -0.049249
H     2.643326    0.709780   -0.120715    0.036900   -0.089960    0.005902
12
* Frequency(31) 1859.2552
C     1.626459    0.326345   -0.066016   -0.013615    0.041689   -0.002777
C     1.424564   -1.013191    0.040171    0.027981    0.013682   -0.001773
N     0.093906   -1.557209    0.115309   -0.226016   -0.038802    0.008768
C    -0.688698   -0.625185    0.064516    1.259152    0.594176   -0.077101
N    -0.798183    0.541728   -0.020331   -0.156218   -0.143955    0.014890
C     0.494903    1.165999   -0.100553    0.016483   -0.269283    0.019876
O    -2.307507   -1.346385    0.159943   -0.726647   -0.321498    0.042787
O     0.551073    2.490200   -0.201783    0.012560    0.179331   -0.013824
H     2.237702   -1.739466    0.074267    0.011755    0.006545   -0.000832
H     0.228970   -2.594980    0.189646    0.871808   -0.184797   -0.008192
H    -1.488797    1.315352   -0.061167    0.353753    0.533131   -0.049249
H     2.641001    0.715449   -0.121087    0.036900   -0.089960    0.005902
12
* Frequency(31) 1859.2552
C     1.627697    0.322555   -0.065763   -0.013615    0.041689   -0.002777
C     1.422020   -1.014435    0.040332    0.027981    0.013682   -0.001773
N     0.114456   -1.553681    0.114512   -0.226016   -0.038802    0.008768
C    -0.803183   -0.679209    0.071526    1.259152    0.594176   -0.077101
N    -0.783980    0.554817   -0.021684   -0.156218   -0.143955    0.014890
C     0.493404    1.190482   -0.102360    0.016483   -0.269283    0.019876
O    -2.241439   -1.317153    0.156052   -0.726647   -0.321498    0.042787
O     0.549931    2.473895   -0.200526    0.012560    0.179331   -0.013824
H     2.236633   -1.740061    0.074343    0.011755    0.006545   -0.000832
H     0.149704   -2.578178    0.190391    0.871808   -0.184797   -0.008192
H    -1.520961    1.266878   -0.056690    0.353753    0.533131   -0.049249
H     2.637646    0.723629   -0.121624    0.036900   -0.089960    0.005902
12
* Frequency(31) 1859.2552
C     1.629181    0.318012   -0.065461   -0.013615    0.041689   -0.002777
C     1.418971   -1.015926    0.040525    0.027981    0.013682   -0.001773
N     0.139086   -1.549452    0.113557   -0.226016   -0.038802    0.008768
C    -0.940397   -0.743958    0.079928    1.259152    0.594176   -0.077101
N    -0.766956    0.570504   -0.023307   -0.156218   -0.143955    0.014890
C     0.491608    1.219827   -0.104526    0.016483   -0.269283    0.019876
O    -2.162253   -1.282119    0.151390   -0.726647   -0.321498    0.042787
O     0.548562    2.454353   -0.199020    0.012560    0.179331   -0.013824
H     2.235352   -1.740775    0.074434    0.011755    0.006545   -0.000832
H     0.054700   -2.558040    0.191284    0.871808   -0.184797   -0.008192
H    -1.559511    1.208781   -0.051323    0.353753    0.533131   -0.049249
H     2.633625    0.733432   -0.122267    0.036900   -0.089960    0.005902
12
* Frequency(31) 1859.2552
C     1.630749    0.313208   -0.065141   -0.013615    0.041689   -0.002777
C     1.415747   -1.017502    0.040729    0.027981    0.013682   -0.001773
N     0.165127   -1.544982    0.112546   -0.226016   -0.038802    0.008768
C    -1.085472   -0.812417    0.088811    1.259152    0.594176   -0.077101
N    -0.748957    0.587090   -0.025023   -0.156218   -0.143955    0.014890
C     0.489709    1.250853   -0.106816    0.016483   -0.269283    0.019876
O    -2.078532   -1.245077    0.146460   -0.726647   -0.321498    0.042787
O     0.547115    2.433691   -0.197427    0.012560    0.179331   -0.013824
H     2.233998   -1.741529    0.074529    0.011755    0.006545   -0.000832
H    -0.045747   -2.536748    0.192228    0.871808   -0.184797   -0.008192
H    -1.600269    1.147356   -0.045648    0.353753    0.533131   -0.049249
H     2.629373    0.743797   -0.122947    0.036900   -0.089960    0.005902
12
* Frequency(31) 1859.2552
C     1.632233    0.308665   -0.064838   -0.013615    0.041689   -0.002777
C     1.412698   -1.018993    0.040922    0.027981    0.013682   -0.001773
N     0.189756   -1.540753    0.111591   -0.226016   -0.038802    0.008768
C    -1.222686   -0.877167    0.097213    1.259152    0.594176   -0.077101
N    -0.731934    0.602777   -0.026645   -0.156218   -0.143955    0.014890
C     0.487913    1.280197   -0.108982    0.016483   -0.269283    0.019876
O    -1.999347   -1.210042    0.141797   -0.726647   -0.321498    0.042787
O     0.545746    2.414149   -0.195921    0.012560    0.179331   -0.013824
H     2.232717   -1.742242    0.074620    0.011755    0.006545   -0.000832
H    -0.140751   -2.516610    0.193120    0.871808   -0.184797   -0.008192
H    -1.638819    1.089259   -0.040282    0.353753    0.533131   -0.049249
H     2.625352    0.753600   -0.123590    0.036900   -0.089960    0.005902
12
* Frequency(31) 1859.2552
C     1.633471    0.304875   -0.064586   -0.013615    0.041689   -0.002777
C     1.410154   -1.020238    0.041084    0.027981    0.013682   -0.001773
N     0.210306   -1.537225    0.110793   -0.226016   -0.038802    0.008768
C    -1.337170   -0.931190    0.104223    1.259152    0.594176   -0.077101
N    -0.717730    0.615866   -0.027999   -0.156218   -0.143955    0.014890
C     0.486414    1.304681   -0.110789    0.016483   -0.269283    0.019876
O    -1.933279   -1.180811    0.137907   -0.726647   -0.321498    0.042787
O     0.544604    2.397844   -0.194664    0.012560    0.179331   -0.013824
H     2.231648   -1.742837    0.074696    0.011755    0.006545   -0.000832
H    -0.220017   -2.499808    0.193865    0.871808   -0.184797   -0.008192
H    -1.670982    1.040786   -0.035804    0.353753    0.533131   -0.049249
H     2.621997    0.761779   -0.124127    0.036900   -0.089960    0.005902
12
* Frequency(31) 1859.2552
C     1.634329    0.302248   -0.064411   -0.013615    0.041689   -0.002777
C     1.408390   -1.021100    0.041195    0.027981    0.013682   -0.001773
N     0.224549   -1.534780    0.110241   -0.226016   -0.038802    0.008768
C    -1.416518   -0.968633    0.109082    1.259152    0.594176   -0.077101
N    -0.707886    0.624938   -0.028937   -0.156218   -0.143955    0.014890
C     0.485375    1.321651   -0.112041    0.016483   -0.269283    0.019876
O    -1.887487   -1.160551    0.135211   -0.726647   -0.321498    0.042787
O     0.543813    2.386543   -0.193793    0.012560    0.179331   -0.013824
H     2.230907   -1.743249    0.074748    0.011755    0.006545   -0.000832
H    -0.274956   -2.488163    0.194381    0.871808   -0.184797   -0.008192
H    -1.693275    1.007189   -0.032700    0.353753    0.533131   -0.049249
H     2.619672    0.767448   -0.124499    0.036900   -0.089960    0.005902
12
* Frequency(31) 1859.2552
C     1.634714    0.301069   -0.064332   -0.013615    0.041689   -0.002777
C     1.407599   -1.021487    0.041245    0.027981    0.013682   -0.001773
N     0.230941   -1.533683    0.109993   -0.226016   -0.038802    0.008768
C    -1.452132   -0.985439    0.111262    1.259152    0.594176   -0.077101
N    -0.703467    0.629009   -0.029358   -0.156218   -0.143955    0.014890
C     0.484909    1.329267   -0.112604    0.016483   -0.269283    0.019876
O    -1.866935   -1.151458    0.134001   -0.726647   -0.321498    0.042787
O     0.543457    2.381470   -0.193402    0.012560    0.179331   -0.013824
H     2.230575   -1.743434    0.074772    0.011755    0.006545   -0.000832
H    -0.299614   -2.482936    0.194613    0.871808   -0.184797   -0.008192
H    -1.703281    0.992110   -0.031307    0.353753    0.533131   -0.049249
H     2.618628    0.769993   -0.124666    0.036900   -0.089960    0.005902
12
* Frequency(31) 1859.2552
C     1.634584    0.301465   -0.064359   -0.013615    0.041689   -0.002777
C     1.407865   -1.021357    0.041229    0.027981    0.013682   -0.001773
N     0.228791   -1.534052    0.110076   -0.226016   -0.038802    0.008768
C    -1.440152   -0.979786    0.110529    1.259152    0.594176   -0.077101
N    -0.704954    0.627640   -0.029217   -0.156218   -0.143955    0.014890
C     0.485066    1.326705   -0.112415    0.016483   -0.269283    0.019876
O    -1.873849   -1.154517    0.134408   -0.726647   -0.321498    0.042787
O     0.543577    2.383177   -0.193533    0.012560    0.179331   -0.013824
H     2.230687   -1.743372    0.074764    0.011755    0.006545   -0.000832
H    -0.291320   -2.484694    0.194535    0.871808   -0.184797   -0.008192
H    -1.699915    0.997182   -0.031776    0.353753    0.533131   -0.049249
H     2.618979    0.769137   -0.124610    0.036900   -0.089960    0.005902
12
* Frequency(31) 1859.2552
C     1.633954    0.303395   -0.064487   -0.013615    0.041689   -0.002777
C     1.409160   -1.020723    0.041147    0.027981    0.013682   -0.001773
N     0.218331   -1.535848    0.110482   -0.226016   -0.038802    0.008768
C    -1.381876   -0.952286    0.106960    1.259152    0.594176   -0.077101
N    -0.712184    0.620977   -0.028528   -0.156218   -0.143955    0.014890
C     0.485829    1.314242   -0.111495    0.016483   -0.269283    0.019876
O    -1.907479   -1.169396    0.136388   -0.726647   -0.321498    0.042787
O     0.544158    2.391477   -0.194173    0.012560    0.179331   -0.013824
H     2.231231   -1.743069    0.074725    0.011755    0.006545   -0.000832
H    -0.250971   -2.493247    0.194156    0.871808   -0.184797   -0.008192
H    -1.683542    1.021857   -0.034055    0.353753    0.533131   -0.049249
H     2.620687    0.764973   -0.124337    0.036900   -0.089960    0.005902
12
* Frequency(31) 1859.2552
C     1.632892    0.306648   -0.064704   -0.013615    0.041689   -0.002777
C     1.411344   -1.019656    0.041008    0.027981    0.013682   -0.001773
N     0.200694   -1.538875    0.111166   -0.226016   -0.038802    0.008768
C    -1.283620   -0.905920    0.100944    1.259152    0.594176   -0.077101
N    -0.724374    0.609744   -0.027366   -0.156218   -0.143955    0.014890
C     0.487115    1.293229   -0.109944    0.016483   -0.269283    0.019876
O    -1.964182   -1.194484    0.139727   -0.726647   -0.321498    0.042787
O     0.545138    2.405470   -0.195252    0.012560    0.179331   -0.013824
H     2.232148   -1.742559    0.074660    0.011755    0.006545   -0.000832
H    -0.182940   -2.507668    0.193517    0.871808   -0.184797   -0.008192
H    -1.655938    1.063459   -0.037898    0.353753    0.533131   -0.049249
H     2.623567    0.757953   -0.123876    0.036900   -0.089960    0.005902
12
* Frequency(31) 1859.2552
C     1.631512    0.310872   -0.064985   -0.013615    0.041689   -0.002777
C     1.414179   -1.018269    0.040829    0.027981    0.013682   -0.001773
N     0.177792   -1.542807    0.112055   -0.226016   -0.038802    0.008768
C    -1.156030   -0.845713    0.093131    1.259152    0.594176   -0.077101
N    -0.740203    0.595157   -0.025857   -0.156218   -0.143955    0.014890
C     0.488785    1.265942   -0.107930    0.016483   -0.269283    0.019876
O    -2.037813   -1.227061    0.144062   -0.726647   -0.321498    0.042787
O     0.546411    2.423642   -0.196653    0.012560    0.179331   -0.013824
H     2.233339   -1.741895    0.074576    0.011755    0.006545   -0.000832
H    -0.094600   -2.526393    0.192687    0.871808   -0.184797   -0.008192
H    -1.620092    1.117481   -0.042889    0.353753    0.533131   -0.049249
H     2.627306    0.748838   -0.123278    0.036900   -0.089960    0.005902
12
* Frequency(31) 1859.2552
C     1.629965    0.315610   -0.065301   -0.013615    0.041689   -0.002777
C     1.417359   -1.016714    0.040627    0.027981    0.013682   -0.001773
N     0.152106   -1.547217    0.113051   -0.226016   -0.038802    0.008768
C    -1.012934   -0.778188    0.084369    1.259152    0.594176   -0.077101
N    -0.757957    0.578797   -0.024165   -0.156218   -0.143955    0.014890
C     0.490659    1.235340   -0.105671    0.016483   -0.269283    0.019876
O    -2.120393   -1.263598    0.148925   -0.726647   -0.321498    0.042787
O     0.547838    2.444022   -0.198224    0.012560    0.179331   -0.013824
H     2.234675   -1.741152    0.074482    0.011755    0.006545   -0.000832
H     0.004476   -2.547394    0.191756    0.871808   -0.184797   -0.008192
H    -1.579890    1.178069   -0.048486    0.353753    0.533131   -0.049249
H     2.631499    0.738614   -0.122607    0.036900   -0.089960    0.005902
