12
* (null), Energy   -1000.0000000
C     1.326706    0.515754   -0.072626   -0.003210   -0.002575   -0.044890
C     1.114284   -0.816584    0.032594    0.002016    0.004447    0.054937
N    -0.151041   -1.347120    0.103530    0.004452    0.009222    0.126166
C    -1.315628   -0.577682    0.076752    0.002750    0.003419    0.068781
N    -1.060936    0.779065   -0.032267   -0.001604   -0.005074   -0.051456
C     0.187706    1.435734   -0.112929   -0.005063   -0.010054   -0.135305
O    -2.423226   -1.063291    0.142349   -0.000734    0.002802    0.008218
O     0.244598    2.644464   -0.204665    0.002834    0.003060    0.040750
H     1.931646   -1.540867    0.066907    0.006485    0.015449    0.179910
H    -0.299216   -2.347153    0.186398   -0.047551   -0.153293   -1.926011
H    -1.882973    1.378347   -0.056429    0.005445    0.019141    0.309706
H     2.328081    0.939334   -0.129643    0.004511    0.024762    0.293966
12
* Frequency(13)  587.8140
C     1.326341    0.515461   -0.077727   -0.003210   -0.002575   -0.044890
C     1.114513   -0.816078    0.038838    0.002016    0.004447    0.054937
N    -0.150535   -1.346072    0.117868    0.004452    0.009222    0.126166
C    -1.315316   -0.577293    0.084568    0.002750    0.003419    0.068781
N    -1.061118    0.778488   -0.038115   -0.001604   -0.005074   -0.051456
C     0.187131    1.434591   -0.128306   -0.005063   -0.010054   -0.135305
O    -2.423310   -1.062972    0.143283   -0.000734    0.002802    0.008218
O     0.244920    2.644812   -0.200034    0.002834    0.003060    0.040750
H     1.932383   -1.539112    0.087353    0.006485    0.015449    0.179910
H    -0.304620   -2.364574   -0.032483   -0.047551   -0.153293   -1.926011
H    -1.882354    1.380522   -0.021232    0.005445    0.019141    0.309706
H     2.328593    0.942148   -0.096236    0.004511    0.024762    0.293966
12
* Frequency(13)  587.8140
C     1.326016    0.515200   -0.082276   -0.003210   -0.002575   -0.044890
C     1.114717   -0.815628    0.044404    0.002016    0.004447    0.054937
N    -0.150084   -1.345138    0.130652    0.004452    0.009222    0.126166
C    -1.315037   -0.576947    0.091538    0.002750    0.003419    0.068781
N    -1.061281    0.777974   -0.043329   -0.001604   -0.005074   -0.051456
C     0.186618    1.433573   -0.142016   -0.005063   -0.010054   -0.135305
O    -2.423384   -1.062688    0.144115   -0.000734    0.002802    0.008218
O     0.245207    2.645122   -0.195905    0.002834    0.003060    0.040750
H     1.933040   -1.537546    0.105583    0.006485    0.015449    0.179910
H    -0.309439   -2.380107   -0.227645   -0.047551   -0.153293   -1.926011
H    -1.881803    1.382462    0.010150    0.005445    0.019141    0.309706
H     2.329051    0.944657   -0.066448    0.004511    0.024762    0.293966
12
* Frequency(13)  587.8140
C     1.325765    0.514999   -0.085779   -0.003210   -0.002575   -0.044890
C     1.114874   -0.815281    0.048691    0.002016    0.004447    0.054937
N    -0.149737   -1.344418    0.140498    0.004452    0.009222    0.126166
C    -1.314822   -0.576680    0.096905    0.002750    0.003419    0.068781
N    -1.061406    0.777578   -0.047344   -0.001604   -0.005074   -0.051456
C     0.186223    1.432788   -0.152575   -0.005063   -0.010054   -0.135305
O    -2.423441   -1.062470    0.144757   -0.000734    0.002802    0.008218
O     0.245428    2.645361   -0.192725    0.002834    0.003060    0.040750
H     1.933546   -1.536341    0.119622    0.006485    0.015449    0.179910
H    -0.313149   -2.392070   -0.377939   -0.047551   -0.153293   -1.926011
H    -1.881378    1.383955    0.034318    0.005445    0.019141    0.309706
H     2.329403    0.946589   -0.043509    0.004511    0.024762    0.293966
12
* Frequency(13)  587.8140
C     1.325617    0.514880   -0.087857   -0.003210   -0.002575   -0.044890
C     1.114967   -0.815075    0.051234    0.002016    0.004447    0.054937
N    -0.149531   -1.343991    0.146337    0.004452    0.009222    0.126166
C    -1.314695   -0.576522    0.100089    0.002750    0.003419    0.068781
N    -1.061480    0.777343   -0.049726   -0.001604   -0.005074   -0.051456
C     0.185988    1.432323   -0.158837   -0.005063   -0.010054   -0.135305
O    -2.423475   -1.062340    0.145137   -0.000734    0.002802    0.008218
O     0.245560    2.645503   -0.190839    0.002834    0.003060    0.040750
H     1.933846   -1.535626    0.127949    0.006485    0.015449    0.179910
H    -0.315350   -2.399164   -0.467079   -0.047551   -0.153293   -1.926011
H    -1.881126    1.384841    0.048651    0.005445    0.019141    0.309706
H     2.329611    0.947735   -0.029904    0.004511    0.024762    0.293966
12
* Frequency(13)  587.8140
C     1.325586    0.514855   -0.088284   -0.003210   -0.002575   -0.044890
C     1.114987   -0.815033    0.051757    0.002016    0.004447    0.054937
N    -0.149489   -1.343903    0.147537    0.004452    0.009222    0.126166
C    -1.314669   -0.576489    0.100743    0.002750    0.003419    0.068781
N    -1.061495    0.777295   -0.050215   -0.001604   -0.005074   -0.051456
C     0.185940    1.432227   -0.160124   -0.005063   -0.010054   -0.135305
O    -2.423482   -1.062313    0.145215   -0.000734    0.002802    0.008218
O     0.245587    2.645532   -0.190451    0.002834    0.003060    0.040750
H     1.933908   -1.535479    0.129661    0.006485    0.015449    0.179910
H    -0.315802   -2.400623   -0.485404   -0.047551   -0.153293   -1.926011
H    -1.881074    1.385023    0.051598    0.005445    0.019141    0.309706
H     2.329654    0.947971   -0.027107    0.004511    0.024762    0.293966
12
* Frequency(13)  587.8140
C     1.325677    0.514928   -0.087014   -0.003210   -0.002575   -0.044890
C     1.114930   -0.815158    0.050203    0.002016    0.004447    0.054937
N    -0.149614   -1.344164    0.143969    0.004452    0.009222    0.126166
C    -1.314747   -0.576586    0.098798    0.002750    0.003419    0.068781
N    -1.061450    0.777438   -0.048760   -0.001604   -0.005074   -0.051456
C     0.186083    1.432512   -0.156297   -0.005063   -0.010054   -0.135305
O    -2.423461   -1.062393    0.144983   -0.000734    0.002802    0.008218
O     0.245506    2.645445   -0.191604    0.002834    0.003060    0.040750
H     1.933725   -1.535916    0.124572    0.006485    0.015449    0.179910
H    -0.314457   -2.396287   -0.430929   -0.047551   -0.153293   -1.926011
H    -1.881228    1.384482    0.042838    0.005445    0.019141    0.309706
H     2.329527    0.947271   -0.035421    0.004511    0.024762    0.293966
12
* Frequency(13)  587.8140
C     1.325879    0.515090   -0.084185   -0.003210   -0.002575   -0.044890
C     1.114803   -0.815439    0.046741    0.002016    0.004447    0.054937
N    -0.149895   -1.344745    0.136018    0.004452    0.009222    0.126166
C    -1.314920   -0.576801    0.094463    0.002750    0.003419    0.068781
N    -1.061349    0.777758   -0.045517   -0.001604   -0.005074   -0.051456
C     0.186402    1.433145   -0.147771   -0.005063   -0.010054   -0.135305
O    -2.423415   -1.062569    0.144465   -0.000734    0.002802    0.008218
O     0.245328    2.645252   -0.194172    0.002834    0.003060    0.040750
H     1.933316   -1.536889    0.113235    0.006485    0.015449    0.179910
H    -0.311461   -2.386627   -0.309557   -0.047551   -0.153293   -1.926011
H    -1.881571    1.383276    0.023322    0.005445    0.019141    0.309706
H     2.329242    0.945710   -0.053946    0.004511    0.024762    0.293966
12
* Frequency(13)  587.8140
C     1.326171    0.515325   -0.080104   -0.003210   -0.002575   -0.044890
C     1.114619   -0.815843    0.041746    0.002016    0.004447    0.054937
N    -0.150300   -1.345584    0.124547    0.004452    0.009222    0.126166
C    -1.315170   -0.577112    0.088209    0.002750    0.003419    0.068781
N    -1.061203    0.778219   -0.040839   -0.001604   -0.005074   -0.051456
C     0.186863    1.434059   -0.135469   -0.005063   -0.010054   -0.135305
O    -2.423348   -1.062824    0.143718   -0.000734    0.002802    0.008218
O     0.245070    2.644974   -0.197877    0.002834    0.003060    0.040750
H     1.932726   -1.538294    0.096877    0.006485    0.015449    0.179910
H    -0.307137   -2.372689   -0.134440   -0.047551   -0.153293   -1.926011
H    -1.882066    1.381535   -0.004837    0.005445    0.019141    0.309706
H     2.328832    0.943459   -0.080674    0.004511    0.024762    0.293966
12
* Frequency(13)  587.8140
C     1.326521    0.515605   -0.075212   -0.003210   -0.002575   -0.044890
C     1.114400   -0.816328    0.035759    0.002016    0.004447    0.054937
N    -0.150785   -1.346589    0.110798    0.004452    0.009222    0.126166
C    -1.315470   -0.577485    0.080714    0.002750    0.003419    0.068781
N    -1.061028    0.778772   -0.035231   -0.001604   -0.005074   -0.051456
C     0.187414    1.435155   -0.120724   -0.005063   -0.010054   -0.135305
O    -2.423268   -1.063129    0.142822   -0.000734    0.002802    0.008218
O     0.244761    2.644641   -0.202318    0.002834    0.003060    0.040750
H     1.932020   -1.539977    0.077272    0.006485    0.015449    0.179910
H    -0.301956   -2.355984    0.075444   -0.047551   -0.153293   -1.926011
H    -1.882659    1.379449   -0.038587    0.005445    0.019141    0.309706
H     2.328341    0.940760   -0.112709    0.004511    0.024762    0.293966
12
* Frequency(13)  587.8140
C     1.326891    0.515902   -0.070040   -0.003210   -0.002575   -0.044890
C     1.114167   -0.816840    0.029429    0.002016    0.004447    0.054937
N    -0.151298   -1.347651    0.096262    0.004452    0.009222    0.126166
C    -1.315787   -0.577879    0.072790    0.002750    0.003419    0.068781
N    -1.060843    0.779357   -0.029303   -0.001604   -0.005074   -0.051456
C     0.187998    1.436313   -0.105135   -0.005063   -0.010054   -0.135305
O    -2.423184   -1.063452    0.141875   -0.000734    0.002802    0.008218
O     0.244435    2.644288   -0.207013    0.002834    0.003060    0.040750
H     1.931272   -1.541757    0.056543    0.006485    0.015449    0.179910
H    -0.296477   -2.338322    0.297352   -0.047551   -0.153293   -1.926011
H    -1.883287    1.377244   -0.074270    0.005445    0.019141    0.309706
H     2.327821    0.937907   -0.146578    0.004511    0.024762    0.293966
12
* Frequency(13)  587.8140
C     1.327241    0.516183   -0.065148   -0.003210   -0.002575   -0.044890
C     1.113948   -0.817324    0.023443    0.002016    0.004447    0.054937
N    -0.151783   -1.348656    0.082513    0.004452    0.009222    0.126166
C    -1.316086   -0.578251    0.065294    0.002750    0.003419    0.068781
N    -1.060668    0.779910   -0.023695   -0.001604   -0.005074   -0.051456
C     0.188549    1.437409   -0.090390   -0.005063   -0.010054   -0.135305
O    -2.423104   -1.063758    0.140979   -0.000734    0.002802    0.008218
O     0.244126    2.643954   -0.211453    0.002834    0.003060    0.040750
H     1.930566   -1.543441    0.036938    0.006485    0.015449    0.179910
H    -0.291295   -2.321617    0.507236   -0.047551   -0.153293   -1.926011
H    -1.883880    1.375158   -0.108020    0.005445    0.019141    0.309706
H     2.327329    0.935209   -0.178613    0.004511    0.024762    0.293966
12
* Frequency(13)  587.8140
C     1.327533    0.516417   -0.061067   -0.003210   -0.002575   -0.044890
C     1.113764   -0.817729    0.018448    0.002016    0.004447    0.054937
N    -0.152188   -1.349495    0.071041    0.004452    0.009222    0.126166
C    -1.316336   -0.578562    0.059041    0.002750    0.003419    0.068781
N    -1.060523    0.780371   -0.019017   -0.001604   -0.005074   -0.051456
C     0.189010    1.438323   -0.078088   -0.005063   -0.010054   -0.135305
O    -2.423037   -1.064012    0.140232   -0.000734    0.002802    0.008218
O     0.243868    2.643676   -0.215158    0.002834    0.003060    0.040750
H     1.929976   -1.544846    0.020580    0.006485    0.015449    0.179910
H    -0.286972   -2.307680    0.682352   -0.047551   -0.153293   -1.926011
H    -1.884375    1.373418   -0.136179    0.005445    0.019141    0.309706
H     2.326919    0.932958   -0.205340    0.004511    0.024762    0.293966
12
* Frequency(13)  587.8140
C     1.327735    0.516579   -0.058238   -0.003210   -0.002575   -0.044890
C     1.113637   -0.818009    0.014986    0.002016    0.004447    0.054937
N    -0.152468   -1.350076    0.063091    0.004452    0.009222    0.126166
C    -1.316510   -0.578778    0.054706    0.002750    0.003419    0.068781
N    -1.060422    0.780691   -0.015774   -0.001604   -0.005074   -0.051456
C     0.189329    1.438957   -0.069561   -0.005063   -0.010054   -0.135305
O    -2.422991   -1.064189    0.139714   -0.000734    0.002802    0.008218
O     0.243690    2.643483   -0.217726    0.002834    0.003060    0.040750
H     1.929567   -1.545819    0.009242    0.006485    0.015449    0.179910
H    -0.283975   -2.298020    0.803724   -0.047551   -0.153293   -1.926011
H    -1.884718    1.372212   -0.155696    0.005445    0.019141    0.309706
H     2.326635    0.931397   -0.223865    0.004511    0.024762    0.293966
12
* Frequency(13)  587.8140
C     1.327826    0.516652   -0.056968   -0.003210   -0.002575   -0.044890
C     1.113580   -0.818135    0.013432    0.002016    0.004447    0.054937
N    -0.152594   -1.350337    0.059522    0.004452    0.009222    0.126166
C    -1.316587   -0.578874    0.052761    0.002750    0.003419    0.068781
N    -1.060376    0.780834   -0.014319   -0.001604   -0.005074   -0.051456
C     0.189472    1.439241   -0.065734   -0.005063   -0.010054   -0.135305
O    -2.422970   -1.064268    0.139482   -0.000734    0.002802    0.008218
O     0.243610    2.643397   -0.218879    0.002834    0.003060    0.040750
H     1.929384   -1.546256    0.004154    0.006485    0.015449    0.179910
H    -0.282630   -2.293684    0.858199   -0.047551   -0.153293   -1.926011
H    -1.884872    1.371670   -0.164456    0.005445    0.019141    0.309706
H     2.326507    0.930697   -0.232180    0.004511    0.024762    0.293966
12
* Frequency(13)  587.8140
C     1.327795    0.516627   -0.057395   -0.003210   -0.002575   -0.044890
C     1.113600   -0.818093    0.013955    0.002016    0.004447    0.054937
N    -0.152552   -1.350249    0.060723    0.004452    0.009222    0.126166
C    -1.316561   -0.578842    0.053415    0.002750    0.003419    0.068781
N    -1.060391    0.780786   -0.014809   -0.001604   -0.005074   -0.051456
C     0.189424    1.439145   -0.067022   -0.005063   -0.010054   -0.135305
O    -2.422977   -1.064242    0.139560   -0.000734    0.002802    0.008218
O     0.243637    2.643426   -0.218491    0.002834    0.003060    0.040750
H     1.929446   -1.546109    0.005866    0.006485    0.015449    0.179910
H    -0.283083   -2.295142    0.839874   -0.047551   -0.153293   -1.926011
H    -1.884821    1.371852   -0.161509    0.005445    0.019141    0.309706
H     2.326550    0.930932   -0.229383    0.004511    0.024762    0.293966
12
* Frequency(13)  587.8140
C     1.327647    0.516508   -0.059473   -0.003210   -0.002575   -0.044890
C     1.113693   -0.817887    0.016497    0.002016    0.004447    0.054937
N    -0.152346   -1.349822    0.066562    0.004452    0.009222    0.126166
C    -1.316434   -0.578684    0.056599    0.002750    0.003419    0.068781
N    -1.060466    0.780551   -0.017190   -0.001604   -0.005074   -0.051456
C     0.189189    1.438680   -0.073284   -0.005063   -0.010054   -0.135305
O    -2.423011   -1.064112    0.139940   -0.000734    0.002802    0.008218
O     0.243768    2.643568   -0.216605    0.002834    0.003060    0.040750
H     1.929746   -1.545394    0.014192    0.006485    0.015449    0.179910
H    -0.285283   -2.302237    0.750735   -0.047551   -0.153293   -1.926011
H    -1.884569    1.372738   -0.147175    0.005445    0.019141    0.309706
H     2.326759    0.932078   -0.215778    0.004511    0.024762    0.293966
12
* Frequency(13)  587.8140
C     1.327396    0.516307   -0.062976   -0.003210   -0.002575   -0.044890
C     1.113850   -0.817540    0.020784    0.002016    0.004447    0.054937
N    -0.151998   -1.349102    0.076407    0.004452    0.009222    0.126166
C    -1.316219   -0.578417    0.061966    0.002750    0.003419    0.068781
N    -1.060591    0.780155   -0.021205   -0.001604   -0.005074   -0.051456
C     0.188794    1.437895   -0.083842   -0.005063   -0.010054   -0.135305
O    -2.423068   -1.063893    0.140582   -0.000734    0.002802    0.008218
O     0.243989    2.643806   -0.213425    0.002834    0.003060    0.040750
H     1.930252   -1.544189    0.028231    0.006485    0.015449    0.179910
H    -0.288994   -2.314199    0.600441   -0.047551   -0.153293   -1.926011
H    -1.884144    1.374232   -0.123008    0.005445    0.019141    0.309706
H     2.327111    0.934011   -0.192838    0.004511    0.024762    0.293966
12
* Frequency(13)  587.8140
C     1.327071    0.516046   -0.067524   -0.003210   -0.002575   -0.044890
C     1.114054   -0.817089    0.026351    0.002016    0.004447    0.054937
N    -0.151547   -1.348168    0.089192    0.004452    0.009222    0.126166
C    -1.315941   -0.578070    0.068935    0.002750    0.003419    0.068781
N    -1.060753    0.779641   -0.026419   -0.001604   -0.005074   -0.051456
C     0.188281    1.436877   -0.097553   -0.005063   -0.010054   -0.135305
O    -2.423143   -1.063609    0.141415   -0.000734    0.002802    0.008218
O     0.244276    2.644116   -0.209296    0.002834    0.003060    0.040750
H     1.930909   -1.542623    0.046461    0.006485    0.015449    0.179910
H    -0.293812   -2.329732    0.405279   -0.047551   -0.153293   -1.926011
H    -1.883592    1.376171   -0.091625    0.005445    0.019141    0.309706
H     2.327568    0.936520   -0.163051    0.004511    0.024762    0.293966
12
* Frequency(13)  587.8140
C     1.326706    0.515754   -0.072626   -0.003210   -0.002575   -0.044890
C     1.114284   -0.816584    0.032594    0.002016    0.004447    0.054937
N    -0.151041   -1.347120    0.103530    0.004452    0.009222    0.126166
C    -1.315628   -0.577682    0.076752    0.002750    0.003419    0.068781
N    -1.060936    0.779065   -0.032267   -0.001604   -0.005074   -0.051456
C     0.187706    1.435734   -0.112929   -0.005063   -0.010054   -0.135305
O    -2.423226   -1.063291    0.142349   -0.000734    0.002802    0.008218
O     0.244598    2.644464   -0.204665    0.002834    0.003060    0.040750
H     1.931646   -1.540867    0.066907    0.006485    0.015449    0.179910
H    -0.299216   -2.347153    0.186398   -0.047551   -0.153293   -1.926011
H    -1.882973    1.378347   -0.056429    0.005445    0.019141    0.309706
H     2.328081    0.939334   -0.129643    0.004511    0.024762    0.293966
