12
* (null), Energy   -1000.0000000
C     1.326706    0.515754   -0.072626    0.009758    0.030240    0.397808
C     1.114284   -0.816584    0.032594   -0.012428   -0.036853   -0.497881
N    -0.151041   -1.347120    0.103530    0.008567    0.026343    0.340762
C    -1.315628   -0.577682    0.076752    0.002499    0.008654    0.122466
N    -1.060936    0.779065   -0.032267   -0.005429   -0.014702   -0.194825
C     0.187706    1.435734   -0.112929    0.006728    0.020481    0.269618
O    -2.423226   -1.063291    0.142349   -0.001660   -0.004148   -0.039068
O     0.244598    2.644464   -0.204665   -0.001598   -0.009525   -0.130643
H     1.931646   -1.540867    0.066907   -0.039196   -0.118644   -1.585566
H    -0.299216   -2.347153    0.186398   -0.008795   -0.032387   -0.398376
H    -1.882973    1.378347   -0.056429   -0.020819   -0.060061   -0.796681
H     2.328081    0.939334   -0.129643   -0.001201   -0.002020   -0.033148
12
* Frequency(9)  404.2949
C     1.327815    0.519190   -0.027417    0.009758    0.030240    0.397808
C     1.112871   -0.820772   -0.023987   -0.012428   -0.036853   -0.497881
N    -0.150068   -1.344126    0.142256    0.008567    0.026343    0.340762
C    -1.315344   -0.576698    0.090670    0.002499    0.008654    0.122466
N    -1.061553    0.777394   -0.054408   -0.005429   -0.014702   -0.194825
C     0.188471    1.438062   -0.082289    0.006728    0.020481    0.269618
O    -2.423415   -1.063762    0.137909   -0.001660   -0.004148   -0.039068
O     0.244417    2.643382   -0.219512   -0.001598   -0.009525   -0.130643
H     1.927192   -1.554351   -0.113284   -0.039196   -0.118644   -1.585566
H    -0.300216   -2.350834    0.141124   -0.008795   -0.032387   -0.398376
H    -1.885339    1.371521   -0.146967   -0.020819   -0.060061   -0.796681
H     2.327944    0.939104   -0.133410   -0.001201   -0.002020   -0.033148
12
* Frequency(9)  404.2949
C     1.328804    0.522254    0.012893    0.009758    0.030240    0.397808
C     1.111612   -0.824506   -0.074437   -0.012428   -0.036853   -0.497881
N    -0.149200   -1.341457    0.176785    0.008567    0.026343    0.340762
C    -1.315091   -0.575821    0.103079    0.002499    0.008654    0.122466
N    -1.062103    0.775904   -0.074149   -0.005429   -0.014702   -0.194825
C     0.189152    1.440137   -0.054968    0.006728    0.020481    0.269618
O    -2.423583   -1.064183    0.133950   -0.001660   -0.004148   -0.039068
O     0.244255    2.642417   -0.232750   -0.001598   -0.009525   -0.130643
H     1.923220   -1.566373   -0.273949   -0.039196   -0.118644   -1.585566
H    -0.301107   -2.354116    0.100757   -0.008795   -0.032387   -0.398376
H    -1.887449    1.365435   -0.227695   -0.020819   -0.060061   -0.796681
H     2.327823    0.938900   -0.136769   -0.001201   -0.002020   -0.033148
12
* Frequency(9)  404.2949
C     1.329565    0.524614    0.043935    0.009758    0.030240    0.397808
C     1.110642   -0.827382   -0.113289   -0.012428   -0.036853   -0.497881
N    -0.148531   -1.339401    0.203376    0.008567    0.026343    0.340762
C    -1.314896   -0.575146    0.112636    0.002499    0.008654    0.122466
N    -1.062527    0.774757   -0.089352   -0.005429   -0.014702   -0.194825
C     0.189678    1.441735   -0.033929    0.006728    0.020481    0.269618
O    -2.423712   -1.064506    0.130901   -0.001660   -0.004148   -0.039068
O     0.244130    2.641673   -0.242945   -0.001598   -0.009525   -0.130643
H     1.920161   -1.575631   -0.397677   -0.039196   -0.118644   -1.585566
H    -0.301793   -2.356643    0.069670   -0.008795   -0.032387   -0.398376
H    -1.889073    1.360748   -0.289863   -0.020819   -0.060061   -0.796681
H     2.327729    0.938742   -0.139356   -0.001201   -0.002020   -0.033148
12
* Frequency(9)  404.2949
C     1.330017    0.526014    0.062347    0.009758    0.030240    0.397808
C     1.110067   -0.829088   -0.136332   -0.012428   -0.036853   -0.497881
N    -0.148135   -1.338182    0.219147    0.008567    0.026343    0.340762
C    -1.314780   -0.574745    0.118303    0.002499    0.008654    0.122466
N    -1.062778    0.774076   -0.098369   -0.005429   -0.014702   -0.194825
C     0.189989    1.442683   -0.021451    0.006728    0.020481    0.269618
O    -2.423789   -1.064698    0.129093   -0.001660   -0.004148   -0.039068
O     0.244056    2.641233   -0.248991   -0.001598   -0.009525   -0.130643
H     1.918347   -1.581122   -0.471059   -0.039196   -0.118644   -1.585566
H    -0.302200   -2.358142    0.051233   -0.008795   -0.032387   -0.398376
H    -1.890037    1.357969   -0.326735   -0.020819   -0.060061   -0.796681
H     2.327673    0.938648   -0.140890   -0.001201   -0.002020   -0.033148
12
* Frequency(9)  404.2949
C     1.330110    0.526302    0.066132    0.009758    0.030240    0.397808
C     1.109949   -0.829438   -0.141069   -0.012428   -0.036853   -0.497881
N    -0.148053   -1.337932    0.222389    0.008567    0.026343    0.340762
C    -1.314756   -0.574663    0.119469    0.002499    0.008654    0.122466
N    -1.062830    0.773936   -0.100223   -0.005429   -0.014702   -0.194825
C     0.190053    1.442878   -0.018885    0.006728    0.020481    0.269618
O    -2.423805   -1.064738    0.128722   -0.001660   -0.004148   -0.039068
O     0.244041    2.641142   -0.250234   -0.001598   -0.009525   -0.130643
H     1.917974   -1.582251   -0.486145   -0.039196   -0.118644   -1.585566
H    -0.302284   -2.358450    0.047442   -0.008795   -0.032387   -0.398376
H    -1.890235    1.357397   -0.334315   -0.020819   -0.060061   -0.796681
H     2.327662    0.938629   -0.141205   -0.001201   -0.002020   -0.033148
12
* Frequency(9)  404.2949
C     1.329834    0.525446    0.054880    0.009758    0.030240    0.397808
C     1.110300   -0.828396   -0.126987   -0.012428   -0.036853   -0.497881
N    -0.148296   -1.338677    0.212751    0.008567    0.026343    0.340762
C    -1.314827   -0.574908    0.116005    0.002499    0.008654    0.122466
N    -1.062676    0.774352   -0.094713   -0.005429   -0.014702   -0.194825
C     0.189863    1.442299   -0.026511    0.006728    0.020481    0.269618
O    -2.423758   -1.064620    0.129826   -0.001660   -0.004148   -0.039068
O     0.244086    2.641411   -0.246539   -0.001598   -0.009525   -0.130643
H     1.919083   -1.578895   -0.441299   -0.039196   -0.118644   -1.585566
H    -0.302035   -2.357534    0.058710   -0.008795   -0.032387   -0.398376
H    -1.889646    1.359096   -0.311782   -0.020819   -0.060061   -0.796681
H     2.327696    0.938686   -0.140268   -0.001201   -0.002020   -0.033148
12
* Frequency(9)  404.2949
C     1.329219    0.523541    0.029811    0.009758    0.030240    0.397808
C     1.111083   -0.826074   -0.095612   -0.012428   -0.036853   -0.497881
N    -0.148835   -1.340337    0.191277    0.008567    0.026343    0.340762
C    -1.314985   -0.575453    0.108287    0.002499    0.008654    0.122466
N    -1.062334    0.775279   -0.082435   -0.005429   -0.014702   -0.194825
C     0.189439    1.441008   -0.043502    0.006728    0.020481    0.269618
O    -2.423654   -1.064359    0.132288   -0.001660   -0.004148   -0.039068
O     0.244187    2.642012   -0.238306   -0.001598   -0.009525   -0.130643
H     1.921553   -1.571419   -0.341381   -0.039196   -0.118644   -1.585566
H    -0.301481   -2.355493    0.083815   -0.008795   -0.032387   -0.398376
H    -1.888334    1.362881   -0.261577   -0.020819   -0.060061   -0.796681
H     2.327772    0.938814   -0.138179   -0.001201   -0.002020   -0.033148
12
* Frequency(9)  404.2949
C     1.328331    0.520791   -0.006358    0.009758    0.030240    0.397808
C     1.112213   -0.822723   -0.050344   -0.012428   -0.036853   -0.497881
N    -0.149614   -1.342732    0.160294    0.008567    0.026343    0.340762
C    -1.315212   -0.576240    0.097153    0.002499    0.008654    0.122466
N    -1.061840    0.776615   -0.064721   -0.005429   -0.014702   -0.194825
C     0.188827    1.439146   -0.068016    0.006728    0.020481    0.269618
O    -2.423503   -1.063982    0.135841   -0.001660   -0.004148   -0.039068
O     0.244332    2.642878   -0.226428   -0.001598   -0.009525   -0.130643
H     1.925117   -1.560631   -0.197219   -0.039196   -0.118644   -1.585566
H    -0.300681   -2.352548    0.120036   -0.008795   -0.032387   -0.398376
H    -1.886441    1.368342   -0.189141   -0.020819   -0.060061   -0.796681
H     2.327881    0.938997   -0.135165   -0.001201   -0.002020   -0.033148
12
* Frequency(9)  404.2949
C     1.327268    0.517496   -0.049709    0.009758    0.030240    0.397808
C     1.113568   -0.818707    0.003912   -0.012428   -0.036853   -0.497881
N    -0.150548   -1.345602    0.123160    0.008567    0.026343    0.340762
C    -1.315484   -0.577183    0.083807    0.002499    0.008654    0.122466
N    -1.061248    0.778218   -0.043491   -0.005429   -0.014702   -0.194825
C     0.188094    1.436914   -0.097397    0.006728    0.020481    0.269618
O    -2.423322   -1.063530    0.140098   -0.001660   -0.004148   -0.039068
O     0.244506    2.643916   -0.212191   -0.001598   -0.009525   -0.130643
H     1.929388   -1.547702   -0.024434   -0.039196   -0.118644   -1.585566
H    -0.299723   -2.349019    0.163448   -0.008795   -0.032387   -0.398376
H    -1.884173    1.374887   -0.102324   -0.020819   -0.060061   -0.796681
H     2.328012    0.939217   -0.131553   -0.001201   -0.002020   -0.033148
12
* Frequency(9)  404.2949
C     1.326144    0.514011   -0.095543    0.009758    0.030240    0.397808
C     1.114999   -0.814461    0.061276   -0.012428   -0.036853   -0.497881
N    -0.151535   -1.348638    0.083899    0.008567    0.026343    0.340762
C    -1.315772   -0.578180    0.069697    0.002499    0.008654    0.122466
N    -1.060623    0.779912   -0.021044   -0.005429   -0.014702   -0.194825
C     0.187318    1.434554   -0.128461    0.006728    0.020481    0.269618
O    -2.423130   -1.063052    0.144599   -0.001660   -0.004148   -0.039068
O     0.244690    2.645013   -0.197139   -0.001598   -0.009525   -0.130643
H     1.933904   -1.534033    0.158249   -0.039196   -0.118644   -1.585566
H    -0.298710   -2.345288    0.209347   -0.008795   -0.032387   -0.398376
H    -1.881774    1.381807   -0.010533   -0.020819   -0.060061   -0.796681
H     2.328150    0.939450   -0.127734   -0.001201   -0.002020   -0.033148
12
* Frequency(9)  404.2949
C     1.325080    0.510716   -0.138893    0.009758    0.030240    0.397808
C     1.116354   -0.810445    0.115532   -0.012428   -0.036853   -0.497881
N    -0.152468   -1.351508    0.046765    0.008567    0.026343    0.340762
C    -1.316044   -0.579124    0.056351    0.002499    0.008654    0.122466
N    -1.060031    0.781514    0.000187   -0.005429   -0.014702   -0.194825
C     0.186585    1.432322   -0.157843    0.006728    0.020481    0.269618
O    -2.422950   -1.062600    0.148857   -0.001660   -0.004148   -0.039068
O     0.244864    2.646051   -0.182902   -0.001598   -0.009525   -0.130643
H     1.938175   -1.521103    0.331033   -0.039196   -0.118644   -1.585566
H    -0.297751   -2.341758    0.252760   -0.008795   -0.032387   -0.398376
H    -1.879505    1.388352    0.076284   -0.020819   -0.060061   -0.796681
H     2.328281    0.939670   -0.124122   -0.001201   -0.002020   -0.033148
12
* Frequency(9)  404.2949
C     1.324193    0.507967   -0.175063    0.009758    0.030240    0.397808
C     1.117484   -0.807094    0.160800   -0.012428   -0.036853   -0.497881
N    -0.153247   -1.353903    0.015782    0.008567    0.026343    0.340762
C    -1.316272   -0.579910    0.045216    0.002499    0.008654    0.122466
N    -1.059538    0.782850    0.017901   -0.005429   -0.014702   -0.194825
C     0.185974    1.430460   -0.182357    0.006728    0.020481    0.269618
O    -2.422799   -1.062223    0.152409   -0.001660   -0.004148   -0.039068
O     0.245010    2.646917   -0.171024   -0.001598   -0.009525   -0.130643
H     1.941739   -1.510316    0.475196   -0.039196   -0.118644   -1.585566
H    -0.296952   -2.338814    0.288981   -0.008795   -0.032387   -0.398376
H    -1.877612    1.393813    0.148719   -0.020819   -0.060061   -0.796681
H     2.328390    0.939854   -0.121108   -0.001201   -0.002020   -0.033148
12
* Frequency(9)  404.2949
C     1.323578    0.506061   -0.200132    0.009758    0.030240    0.397808
C     1.118267   -0.804771    0.192175   -0.012428   -0.036853   -0.497881
N    -0.153787   -1.355563   -0.005691    0.008567    0.026343    0.340762
C    -1.316429   -0.580456    0.037499    0.002499    0.008654    0.122466
N    -1.059195    0.783777    0.030178   -0.005429   -0.014702   -0.194825
C     0.185550    1.429169   -0.199347    0.006728    0.020481    0.269618
O    -2.422694   -1.061961    0.154871   -0.001660   -0.004148   -0.039068
O     0.245110    2.647517   -0.162791   -0.001598   -0.009525   -0.130643
H     1.944209   -1.502839    0.575114   -0.039196   -0.118644   -1.585566
H    -0.296397   -2.336773    0.314085   -0.008795   -0.032387   -0.398376
H    -1.876300    1.397598    0.198924   -0.020819   -0.060061   -0.796681
H     2.328466    0.939981   -0.119019   -0.001201   -0.002020   -0.033148
12
* Frequency(9)  404.2949
C     1.323302    0.505206   -0.211383    0.009758    0.030240    0.397808
C     1.118618   -0.803729    0.206258   -0.012428   -0.036853   -0.497881
N    -0.154029   -1.356308   -0.015329    0.008567    0.026343    0.340762
C    -1.316500   -0.580701    0.034035    0.002499    0.008654    0.122466
N    -1.059042    0.784193    0.035689   -0.005429   -0.014702   -0.194825
C     0.185359    1.428590   -0.206973    0.006728    0.020481    0.269618
O    -2.422647   -1.061844    0.155976   -0.001660   -0.004148   -0.039068
O     0.245156    2.647786   -0.159096   -0.001598   -0.009525   -0.130643
H     1.945318   -1.499484    0.619960   -0.039196   -0.118644   -1.585566
H    -0.296149   -2.335857    0.325353   -0.008795   -0.032387   -0.398376
H    -1.875711    1.399296    0.221457   -0.020819   -0.060061   -0.796681
H     2.328500    0.940039   -0.118081   -0.001201   -0.002020   -0.033148
12
* Frequency(9)  404.2949
C     1.323395    0.505493   -0.207598    0.009758    0.030240    0.397808
C     1.118500   -0.804080    0.201520   -0.012428   -0.036853   -0.497881
N    -0.153948   -1.356058   -0.012087    0.008567    0.026343    0.340762
C    -1.316476   -0.580618    0.035200    0.002499    0.008654    0.122466
N    -1.059094    0.784053    0.033835   -0.005429   -0.014702   -0.194825
C     0.185423    1.428785   -0.204408    0.006728    0.020481    0.269618
O    -2.422663   -1.061883    0.155604   -0.001660   -0.004148   -0.039068
O     0.245140    2.647696   -0.160339   -0.001598   -0.009525   -0.130643
H     1.944945   -1.500613    0.604874   -0.039196   -0.118644   -1.585566
H    -0.296232   -2.336165    0.321563   -0.008795   -0.032387   -0.398376
H    -1.875909    1.398725    0.213877   -0.020819   -0.060061   -0.796681
H     2.328488    0.940019   -0.118397   -0.001201   -0.002020   -0.033148
12
* Frequency(9)  404.2949
C     1.323847    0.506893   -0.189187    0.009758    0.030240    0.397808
C     1.117925   -0.805785    0.178478   -0.012428   -0.036853   -0.497881
N    -0.153551   -1.354839    0.003684    0.008567    0.026343    0.340762
C    -1.316360   -0.580218    0.040868    0.002499    0.008654    0.122466
N    -1.059345    0.783372    0.024818   -0.005429   -0.014702   -0.194825
C     0.185735    1.429733   -0.191930    0.006728    0.020481    0.269618
O    -2.422740   -1.062075    0.153796   -0.001660   -0.004148   -0.039068
O     0.245066    2.647255   -0.166386   -0.001598   -0.009525   -0.130643
H     1.943131   -1.506104    0.531491   -0.039196   -0.118644   -1.585566
H    -0.296639   -2.337664    0.303125   -0.008795   -0.032387   -0.398376
H    -1.876873    1.395945    0.177005   -0.020819   -0.060061   -0.796681
H     2.328433    0.939926   -0.119931   -0.001201   -0.002020   -0.033148
12
* Frequency(9)  404.2949
C     1.324608    0.509253   -0.158145    0.009758    0.030240    0.397808
C     1.116955   -0.808661    0.139626   -0.012428   -0.036853   -0.497881
N    -0.152883   -1.352783    0.030275    0.008567    0.026343    0.340762
C    -1.316165   -0.579542    0.050425    0.002499    0.008654    0.122466
N    -1.059768    0.782225    0.009615   -0.005429   -0.014702   -0.194825
C     0.186260    1.431331   -0.170890    0.006728    0.020481    0.269618
O    -2.422869   -1.062399    0.150747   -0.001660   -0.004148   -0.039068
O     0.244942    2.646512   -0.176580   -0.001598   -0.009525   -0.130643
H     1.940072   -1.515362    0.407763   -0.039196   -0.118644   -1.585566
H    -0.297326   -2.340191    0.272038   -0.008795   -0.032387   -0.398376
H    -1.878498    1.391258    0.114837   -0.020819   -0.060061   -0.796681
H     2.328339    0.939768   -0.122517   -0.001201   -0.002020   -0.033148
12
* Frequency(9)  404.2949
C     1.325597    0.512317   -0.117835    0.009758    0.030240    0.397808
C     1.115696   -0.812396    0.089176   -0.012428   -0.036853   -0.497881
N    -0.152015   -1.350114    0.064804    0.008567    0.026343    0.340762
C    -1.315912   -0.578665    0.062834    0.002499    0.008654    0.122466
N    -1.060319    0.780735   -0.010126   -0.005429   -0.014702   -0.194825
C     0.186941    1.433406   -0.143570    0.006728    0.020481    0.269618
O    -2.423037   -1.062819    0.146788   -0.001660   -0.004148   -0.039068
O     0.244780    2.645547   -0.189818   -0.001598   -0.009525   -0.130643
H     1.936101   -1.527384    0.247099   -0.039196   -0.118644   -1.585566
H    -0.298217   -2.343473    0.231671   -0.008795   -0.032387   -0.398376
H    -1.880607    1.385172    0.034110   -0.020819   -0.060061   -0.796681
H     2.328217    0.939563   -0.125876   -0.001201   -0.002020   -0.033148
12
* Frequency(9)  404.2949
C     1.326706    0.515754   -0.072626    0.009758    0.030240    0.397808
C     1.114284   -0.816584    0.032594   -0.012428   -0.036853   -0.497881
N    -0.151041   -1.347120    0.103530    0.008567    0.026343    0.340762
C    -1.315628   -0.577682    0.076752    0.002499    0.008654    0.122466
N    -1.060936    0.779065   -0.032267   -0.005429   -0.014702   -0.194825
C     0.187706    1.435734   -0.112929    0.006728    0.020481    0.269618
O    -2.423226   -1.063291    0.142349   -0.001660   -0.004148   -0.039068
O     0.244598    2.644464   -0.204665   -0.001598   -0.009525   -0.130643
H     1.931646   -1.540867    0.066907   -0.039196   -0.118644   -1.585566
H    -0.299216   -2.347153    0.186398   -0.008795   -0.032387   -0.398376
H    -1.882973    1.378347   -0.056429   -0.020819   -0.060061   -0.796681
H     2.328081    0.939334   -0.129643   -0.001201   -0.002020   -0.033148
