12
* (null), Energy   -1000.0000000
C     1.326706    0.515754   -0.072626    0.059990   -0.291546    0.020272
C     1.114284   -0.816584    0.032594    0.033532    0.104614   -0.008633
N    -0.151041   -1.347120    0.103530   -0.022917   -0.021879    0.002353
C    -1.315628   -0.577682    0.076752    0.209318    0.138460   -0.016014
N    -1.060936    0.779065   -0.032267   -0.059143   -0.204223    0.016935
C     0.187706    1.435734   -0.112929   -0.057325    1.367444   -0.100848
O    -2.423226   -1.063291    0.142349   -0.119968   -0.050823    0.006964
O     0.244598    2.644464   -0.204665   -0.019965   -0.812980    0.061266
H     1.931646   -1.540867    0.066907   -0.093412   -0.018652    0.003853
H    -0.299216   -2.347153    0.186398    0.115342   -0.027872   -0.001687
H    -1.882973    1.378347   -0.056429    0.634996    0.738747   -0.071645
H     2.328081    0.939334   -0.129643   -0.221114    0.443513   -0.027684
12
* Frequency(30) 1825.1863
C     1.333524    0.482621   -0.070322    0.059990   -0.291546    0.020272
C     1.118094   -0.804695    0.031613    0.033532    0.104614   -0.008633
N    -0.153646   -1.349606    0.103797   -0.022917   -0.021879    0.002353
C    -1.291840   -0.561947    0.074932    0.209318    0.138460   -0.016014
N    -1.067657    0.755856   -0.030343   -0.059143   -0.204223    0.016935
C     0.181191    1.591137   -0.124390   -0.057325    1.367444   -0.100848
O    -2.436860   -1.069067    0.143140   -0.119968   -0.050823    0.006964
O     0.242329    2.552073   -0.197703   -0.019965   -0.812980    0.061266
H     1.921030   -1.542987    0.067345   -0.093412   -0.018652    0.003853
H    -0.286108   -2.350321    0.186206    0.115342   -0.027872   -0.001687
H    -1.810809    1.462302   -0.064571    0.634996    0.738747   -0.071645
H     2.302952    0.989737   -0.132789   -0.221114    0.443513   -0.027684
12
* Frequency(30) 1825.1863
C     1.339602    0.453079   -0.068268    0.059990   -0.291546    0.020272
C     1.121492   -0.794094    0.030738    0.033532    0.104614   -0.008633
N    -0.155968   -1.351823    0.104036   -0.022917   -0.021879    0.002353
C    -1.270630   -0.547916    0.073309    0.209318    0.138460   -0.016014
N    -1.073650    0.735162   -0.028627   -0.059143   -0.204223    0.016935
C     0.175383    1.729699   -0.134609   -0.057325    1.367444   -0.100848
O    -2.449016   -1.074216    0.143846   -0.119968   -0.050823    0.006964
O     0.240306    2.469694   -0.191495   -0.019965   -0.812980    0.061266
H     1.911565   -1.544877    0.067736   -0.093412   -0.018652    0.003853
H    -0.274421   -2.353145    0.186035    0.115342   -0.027872   -0.001687
H    -1.746465    1.537158   -0.071831    0.634996    0.738747   -0.071645
H     2.280547    1.034678   -0.135595   -0.221114    0.443513   -0.027684
12
* Frequency(30) 1825.1863
C     1.344284    0.430328   -0.066686    0.059990   -0.291546    0.020272
C     1.124109   -0.785931    0.030065    0.033532    0.104614   -0.008633
N    -0.157756   -1.353531    0.104219   -0.022917   -0.021879    0.002353
C    -1.254296   -0.537112    0.072060    0.209318    0.138460   -0.016014
N    -1.078265    0.719225   -0.027305   -0.059143   -0.204223    0.016935
C     0.170909    1.836406   -0.142479   -0.057325    1.367444   -0.100848
O    -2.458378   -1.078182    0.144389   -0.119968   -0.050823    0.006964
O     0.238748    2.406254   -0.186714   -0.019965   -0.812980    0.061266
H     1.904276   -1.546332    0.068036   -0.093412   -0.018652    0.003853
H    -0.265420   -2.355320    0.185903    0.115342   -0.027872   -0.001687
H    -1.696914    1.594806   -0.077421    0.634996    0.738747   -0.071645
H     2.263293    1.069287   -0.137755   -0.221114    0.443513   -0.027684
12
* Frequency(30) 1825.1863
C     1.347060    0.416835   -0.065748    0.059990   -0.291546    0.020272
C     1.125660   -0.781089    0.029665    0.033532    0.104614   -0.008633
N    -0.158817   -1.354543    0.104328   -0.022917   -0.021879    0.002353
C    -1.244608   -0.530704    0.071318    0.209318    0.138460   -0.016014
N    -1.081002    0.709774   -0.026521   -0.059143   -0.204223    0.016935
C     0.168256    1.899694   -0.147146   -0.057325    1.367444   -0.100848
O    -2.463930   -1.080534    0.144712   -0.119968   -0.050823    0.006964
O     0.237824    2.368628   -0.183878   -0.019965   -0.812980    0.061266
H     1.899952   -1.547196    0.068215   -0.093412   -0.018652    0.003853
H    -0.260082   -2.356610    0.185825    0.115342   -0.027872   -0.001687
H    -1.667525    1.628996   -0.080737    0.634996    0.738747   -0.071645
H     2.253059    1.089814   -0.139036   -0.221114    0.443513   -0.027684
12
* Frequency(30) 1825.1863
C     1.347631    0.414061   -0.065555    0.059990   -0.291546    0.020272
C     1.125980   -0.780094    0.029583    0.033532    0.104614   -0.008633
N    -0.159035   -1.354751    0.104351   -0.022917   -0.021879    0.002353
C    -1.242617   -0.529386    0.071166    0.209318    0.138460   -0.016014
N    -1.081565    0.707831   -0.026360   -0.059143   -0.204223    0.016935
C     0.167711    1.912705   -0.148106   -0.057325    1.367444   -0.100848
O    -2.465071   -1.081018    0.144778   -0.119968   -0.050823    0.006964
O     0.237634    2.360893   -0.183295   -0.019965   -0.812980    0.061266
H     1.899063   -1.547373    0.068251   -0.093412   -0.018652    0.003853
H    -0.258984   -2.356875    0.185809    0.115342   -0.027872   -0.001687
H    -1.661484    1.636025   -0.081419    0.634996    0.738747   -0.071645
H     2.250955    1.094033   -0.139300   -0.221114    0.443513   -0.027684
12
* Frequency(30) 1825.1863
C     1.345934    0.422307   -0.066128    0.059990   -0.291546    0.020272
C     1.125031   -0.783053    0.029827    0.033532    0.104614   -0.008633
N    -0.158387   -1.354133    0.104284   -0.022917   -0.021879    0.002353
C    -1.248537   -0.533303    0.071619    0.209318    0.138460   -0.016014
N    -1.079892    0.713607   -0.026839   -0.059143   -0.204223    0.016935
C     0.169332    1.874028   -0.145253   -0.057325    1.367444   -0.100848
O    -2.461678   -1.079581    0.144581   -0.119968   -0.050823    0.006964
O     0.238199    2.383887   -0.185028   -0.019965   -0.812980    0.061266
H     1.901706   -1.546846    0.068142   -0.093412   -0.018652    0.003853
H    -0.262247   -2.356087    0.185857    0.115342   -0.027872   -0.001687
H    -1.679444    1.615130   -0.079393    0.634996    0.738747   -0.071645
H     2.257209    1.081489   -0.138517   -0.221114    0.443513   -0.027684
12
* Frequency(30) 1825.1863
C     1.342154    0.440679   -0.067406    0.059990   -0.291546    0.020272
C     1.122918   -0.789645    0.030371    0.033532    0.104614   -0.008633
N    -0.156942   -1.352754    0.104136   -0.022917   -0.021879    0.002353
C    -1.261728   -0.542028    0.072628    0.209318    0.138460   -0.016014
N    -1.076165    0.726476   -0.027906   -0.059143   -0.204223    0.016935
C     0.172945    1.787855   -0.138898   -0.057325    1.367444   -0.100848
O    -2.454118   -1.076378    0.144142   -0.119968   -0.050823    0.006964
O     0.239457    2.435119   -0.188889   -0.019965   -0.812980    0.061266
H     1.907592   -1.545670    0.067899   -0.093412   -0.018652    0.003853
H    -0.269515   -2.354330    0.185963    0.115342   -0.027872   -0.001687
H    -1.719459    1.568577   -0.074878    0.634996    0.738747   -0.071645
H     2.271143    1.053540   -0.136772   -0.221114    0.443513   -0.027684
12
* Frequency(30) 1825.1863
C     1.336699    0.467187   -0.069249    0.059990   -0.291546    0.020272
C     1.119869   -0.799157    0.031156    0.033532    0.104614   -0.008633
N    -0.154859   -1.350765    0.103922   -0.022917   -0.021879    0.002353
C    -1.280759   -0.554617    0.074084    0.209318    0.138460   -0.016014
N    -1.070788    0.745045   -0.029446   -0.059143   -0.204223    0.016935
C     0.178157    1.663525   -0.129729   -0.057325    1.367444   -0.100848
O    -2.443210   -1.071757    0.143509   -0.119968   -0.050823    0.006964
O     0.241272    2.509037   -0.194459   -0.019965   -0.812980    0.061266
H     1.916085   -1.543974    0.067549   -0.093412   -0.018652    0.003853
H    -0.280002   -2.351796    0.186117    0.115342   -0.027872   -0.001687
H    -1.777194    1.501408   -0.068364    0.634996    0.738747   -0.071645
H     2.291247    1.013215   -0.134255   -0.221114    0.443513   -0.027684
12
* Frequency(30) 1825.1863
C     1.330162    0.498958   -0.071458    0.059990   -0.291546    0.020272
C     1.116215   -0.810557    0.032097    0.033532    0.104614   -0.008633
N    -0.152361   -1.348380    0.103665   -0.022917   -0.021879    0.002353
C    -1.303570   -0.569705    0.075829    0.209318    0.138460   -0.016014
N    -1.064343    0.767300   -0.031292   -0.059143   -0.204223    0.016935
C     0.184404    1.514510   -0.118739   -0.057325    1.367444   -0.100848
O    -2.430137   -1.066219    0.142750   -0.119968   -0.050823    0.006964
O     0.243448    2.597630   -0.201136   -0.019965   -0.812980    0.061266
H     1.926265   -1.541942    0.067129   -0.093412   -0.018652    0.003853
H    -0.292572   -2.348759    0.186301    0.115342   -0.027872   -0.001687
H    -1.846392    1.420905   -0.060556    0.634996    0.738747   -0.071645
H     2.315343    0.964884   -0.131238   -0.221114    0.443513   -0.027684
12
* Frequency(30) 1825.1863
C     1.323250    0.532549   -0.073794    0.059990   -0.291546    0.020272
C     1.112352   -0.822610    0.033092    0.033532    0.104614   -0.008633
N    -0.149721   -1.345860    0.103394   -0.022917   -0.021879    0.002353
C    -1.327687   -0.585658    0.077674    0.209318    0.138460   -0.016014
N    -1.057529    0.790830   -0.033243   -0.059143   -0.204223    0.016935
C     0.191008    1.356958   -0.107120   -0.057325    1.367444   -0.100848
O    -2.416315   -1.060363    0.141947   -0.119968   -0.050823    0.006964
O     0.245748    2.691298   -0.208194   -0.019965   -0.812980    0.061266
H     1.937027   -1.539793    0.066685   -0.093412   -0.018652    0.003853
H    -0.305861   -2.345548    0.186495    0.115342   -0.027872   -0.001687
H    -1.919554    1.335789   -0.052301    0.634996    0.738747   -0.071645
H     2.340819    0.913784   -0.128048   -0.221114    0.443513   -0.027684
12
* Frequency(30) 1825.1863
C     1.316713    0.564320   -0.076003    0.059990   -0.291546    0.020272
C     1.108698   -0.834010    0.034032    0.033532    0.104614   -0.008633
N    -0.147224   -1.343475    0.103138   -0.022917   -0.021879    0.002353
C    -1.350497   -0.600747    0.079420    0.209318    0.138460   -0.016014
N    -1.051084    0.813084   -0.035088   -0.059143   -0.204223    0.016935
C     0.197255    1.207943   -0.096130   -0.057325    1.367444   -0.100848
O    -2.403242   -1.054825    0.141188   -0.119968   -0.050823    0.006964
O     0.247924    2.779892   -0.214871   -0.019965   -0.812980    0.061266
H     1.947207   -1.537760    0.066265   -0.093412   -0.018652    0.003853
H    -0.318430   -2.342510    0.186679    0.115342   -0.027872   -0.001687
H    -1.988752    1.255285   -0.044494    0.634996    0.738747   -0.071645
H     2.364914    0.865453   -0.125032   -0.221114    0.443513   -0.027684
12
* Frequency(30) 1825.1863
C     1.311258    0.590828   -0.077846    0.059990   -0.291546    0.020272
C     1.105649   -0.843522    0.034817    0.033532    0.104614   -0.008633
N    -0.145140   -1.341486    0.102924   -0.022917   -0.021879    0.002353
C    -1.369528   -0.613336    0.080876    0.209318    0.138460   -0.016014
N    -1.045706    0.831653   -0.036628   -0.059143   -0.204223    0.016935
C     0.202468    1.083613   -0.086961   -0.057325    1.367444   -0.100848
O    -2.392334   -1.050204    0.140555   -0.119968   -0.050823    0.006964
O     0.249739    2.853809   -0.220441   -0.019965   -0.812980    0.061266
H     1.955700   -1.536065    0.065915   -0.093412   -0.018652    0.003853
H    -0.328917   -2.339976    0.186832    0.115342   -0.027872   -0.001687
H    -2.046487    1.188117   -0.037980    0.634996    0.738747   -0.071645
H     2.385018    0.825128   -0.122515   -0.221114    0.443513   -0.027684
12
* Frequency(30) 1825.1863
C     1.307478    0.609200   -0.079123    0.059990   -0.291546    0.020272
C     1.103536   -0.850115    0.035361    0.033532    0.104614   -0.008633
N    -0.143696   -1.340107    0.102775   -0.022917   -0.021879    0.002353
C    -1.382719   -0.622061    0.081885    0.209318    0.138460   -0.016014
N    -1.041979    0.844522   -0.037695   -0.059143   -0.204223    0.016935
C     0.206080    0.997440   -0.080605   -0.057325    1.367444   -0.100848
O    -2.384774   -1.047001    0.140116   -0.119968   -0.050823    0.006964
O     0.250997    2.905041   -0.224302   -0.019965   -0.812980    0.061266
H     1.961587   -1.534889    0.065672   -0.093412   -0.018652    0.003853
H    -0.336186   -2.338220    0.186938    0.115342   -0.027872   -0.001687
H    -2.086503    1.141563   -0.033465    0.634996    0.738747   -0.071645
H     2.398952    0.797179   -0.120770   -0.221114    0.443513   -0.027684
12
* Frequency(30) 1825.1863
C     1.305781    0.617446   -0.079697    0.059990   -0.291546    0.020272
C     1.102587   -0.853074    0.035605    0.033532    0.104614   -0.008633
N    -0.143048   -1.339489    0.102709   -0.022917   -0.021879    0.002353
C    -1.388639   -0.625977    0.082338    0.209318    0.138460   -0.016014
N    -1.040307    0.850299   -0.038174   -0.059143   -0.204223    0.016935
C     0.207701    0.958763   -0.077753   -0.057325    1.367444   -0.100848
O    -2.381381   -1.045564    0.139919   -0.119968   -0.050823    0.006964
O     0.251562    2.928035   -0.226035   -0.019965   -0.812980    0.061266
H     1.964229   -1.534362    0.065563   -0.093412   -0.018652    0.003853
H    -0.339448   -2.337431    0.186986    0.115342   -0.027872   -0.001687
H    -2.104463    1.120668   -0.031439    0.634996    0.738747   -0.071645
H     2.405206    0.784634   -0.119987   -0.221114    0.443513   -0.027684
12
* Frequency(30) 1825.1863
C     1.306352    0.614672   -0.079504    0.059990   -0.291546    0.020272
C     1.102907   -0.852078    0.035523    0.033532    0.104614   -0.008633
N    -0.143266   -1.339697    0.102731   -0.022917   -0.021879    0.002353
C    -1.386648   -0.624660    0.082185    0.209318    0.138460   -0.016014
N    -1.040869    0.848356   -0.038013   -0.059143   -0.204223    0.016935
C     0.207156    0.971774   -0.078713   -0.057325    1.367444   -0.100848
O    -2.382522   -1.046047    0.139986   -0.119968   -0.050823    0.006964
O     0.251372    2.920300   -0.225452   -0.019965   -0.812980    0.061266
H     1.963340   -1.534539    0.065600   -0.093412   -0.018652    0.003853
H    -0.338351   -2.337697    0.186970    0.115342   -0.027872   -0.001687
H    -2.098421    1.127697   -0.032120    0.634996    0.738747   -0.071645
H     2.403102    0.788854   -0.120250   -0.221114    0.443513   -0.027684
12
* Frequency(30) 1825.1863
C     1.309128    0.601179   -0.078566    0.059990   -0.291546    0.020272
C     1.104458   -0.847236    0.035124    0.033532    0.104614   -0.008633
N    -0.144327   -1.340709    0.102840   -0.022917   -0.021879    0.002353
C    -1.376960   -0.618252    0.081444    0.209318    0.138460   -0.016014
N    -1.043606    0.838904   -0.037229   -0.059143   -0.204223    0.016935
C     0.204503    1.035062   -0.083380   -0.057325    1.367444   -0.100848
O    -2.388075   -1.048399    0.140308   -0.119968   -0.050823    0.006964
O     0.250448    2.882674   -0.222616   -0.019965   -0.812980    0.061266
H     1.959017   -1.535402    0.065778   -0.093412   -0.018652    0.003853
H    -0.333012   -2.338987    0.186892    0.115342   -0.027872   -0.001687
H    -2.069032    1.161888   -0.035436    0.634996    0.738747   -0.071645
H     2.392869    0.809381   -0.121532   -0.221114    0.443513   -0.027684
12
* Frequency(30) 1825.1863
C     1.313810    0.578429   -0.076984    0.059990   -0.291546    0.020272
C     1.107075   -0.839073    0.034450    0.033532    0.104614   -0.008633
N    -0.146115   -1.342417    0.103024   -0.022917   -0.021879    0.002353
C    -1.360626   -0.607447    0.080195    0.209318    0.138460   -0.016014
N    -1.048222    0.822967   -0.035908   -0.059143   -0.204223    0.016935
C     0.200030    1.141769   -0.091250   -0.057325    1.367444   -0.100848
O    -2.397436   -1.052365    0.140851   -0.119968   -0.050823    0.006964
O     0.248890    2.819234   -0.217836   -0.019965   -0.812980    0.061266
H     1.951727   -1.536858    0.066079   -0.093412   -0.018652    0.003853
H    -0.324012   -2.341162    0.186760    0.115342   -0.027872   -0.001687
H    -2.019481    1.219535   -0.041027    0.634996    0.738747   -0.071645
H     2.375615    0.843990   -0.123692   -0.221114    0.443513   -0.027684
12
* Frequency(30) 1825.1863
C     1.319888    0.548886   -0.074930    0.059990   -0.291546    0.020272
C     1.110473   -0.828473    0.033575    0.033532    0.104614   -0.008633
N    -0.148437   -1.344634    0.103262   -0.022917   -0.021879    0.002353
C    -1.339416   -0.593417    0.078572    0.209318    0.138460   -0.016014
N    -1.054214    0.802274   -0.034192   -0.059143   -0.204223    0.016935
C     0.194221    1.280331   -0.101468   -0.057325    1.367444   -0.100848
O    -2.409592   -1.057515    0.141557   -0.119968   -0.050823    0.006964
O     0.246867    2.736855   -0.211628   -0.019965   -0.812980    0.061266
H     1.942262   -1.538748    0.066469   -0.093412   -0.018652    0.003853
H    -0.312324   -2.343986    0.186589    0.115342   -0.027872   -0.001687
H    -1.955137    1.294392   -0.048287    0.634996    0.738747   -0.071645
H     2.353209    0.888931   -0.126497   -0.221114    0.443513   -0.027684
12
* Frequency(30) 1825.1863
C     1.326706    0.515754   -0.072626    0.059990   -0.291546    0.020272
C     1.114284   -0.816584    0.032594    0.033532    0.104614   -0.008633
N    -0.151041   -1.347120    0.103530   -0.022917   -0.021879    0.002353
C    -1.315628   -0.577682    0.076752    0.209318    0.138460   -0.016014
N    -1.060936    0.779065   -0.032267   -0.059143   -0.204223    0.016935
C     0.187706    1.435734   -0.112929   -0.057325    1.367444   -0.100848
O    -2.423226   -1.063291    0.142349   -0.119968   -0.050823    0.006964
O     0.244598    2.644464   -0.204665   -0.019965   -0.812980    0.061266
H     1.931646   -1.540867    0.066907   -0.093412   -0.018652    0.003853
H    -0.299216   -2.347153    0.186398    0.115342   -0.027872   -0.001687
H    -1.882973    1.378347   -0.056429    0.634996    0.738747   -0.071645
H     2.328081    0.939334   -0.129643   -0.221114    0.443513   -0.027684
