12
Coordinates from ORCA-job Uracil_0 E -414.296346697833
  C       1.324730      0.495160     -0.070940
  C       1.138940     -0.837420      0.034180
  N      -0.149430     -1.388020      0.108550
  C      -1.307300     -0.554680      0.075070
  N      -1.121180      0.846280     -0.035250
  C       0.189280      1.421250     -0.111920
  O      -2.423220     -1.055480      0.141140
  O       0.239830      2.636540     -0.204920
  H       1.974690     -1.549090      0.066500
  H      -0.263970     -2.373230      0.185460
  H      -1.931360      1.430000     -0.058700
  H       2.328990      0.928690     -0.129200
12
Coordinates from ORCA-job Uracil_0 E -414.304601617704
  C       1.320720      0.506879     -0.071759
  C       1.120396     -0.823608      0.033614
  N      -0.153085     -1.357912      0.106438
  C      -1.305185     -0.564579      0.075939
  N      -1.084831      0.804403     -0.032929
  C       0.190685      1.426814     -0.112421
  O      -2.412556     -1.058557      0.140924
  O       0.255676      2.638306     -0.205512
  H       1.942920     -1.541840      0.066762
  H      -0.282634     -2.360179      0.184901
  H      -1.911779      1.394015     -0.056460
  H       2.319674      0.936259     -0.129526
12
Coordinates from ORCA-job Uracil_0 E -414.305948131090
  C       1.323109      0.514229     -0.072452
  C       1.112975     -0.817560      0.033339
  N      -0.153376     -1.343863      0.105389
  C      -1.311683     -0.573984      0.076490
  N      -1.062621      0.780366     -0.031687
  C       0.188788      1.432802     -0.112766
  O      -2.419610     -1.061074      0.141384
  O       0.254216      2.641716     -0.205732
  H       1.929917     -1.541787      0.067182
  H      -0.294430     -2.344861      0.184107
  H      -1.889650      1.372134     -0.055251
  H       2.322364      0.941882     -0.130033
12
Coordinates from ORCA-job Uracil_0 E -414.306022509145
  C       1.325553      0.515127     -0.072525
  C       1.114110     -0.817440      0.033320
  N      -0.152173     -1.345513      0.105592
  C      -1.314950     -0.576332      0.077352
  N      -1.061083      0.779789     -0.031556
  C       0.188007      1.435023     -0.113035
  O      -2.423372     -1.061882      0.141200
  O       0.250053      2.643673     -0.205826
  H       1.931044     -1.542033      0.067056
  H      -0.296123     -2.346472      0.184126
  H      -1.886631      1.374469     -0.055637
  H       2.325564      0.941590     -0.130097
12
Coordinates from ORCA-job Uracil_0 E -414.306034301420
  C       1.326862      0.515506     -0.072742
  C       1.114543     -0.817012      0.033256
  N      -0.151389     -1.346737      0.105544
  C      -1.316295     -0.577687      0.076115
  N      -1.060741      0.779587     -0.031740
  C       0.187520      1.435903     -0.112767
  O      -2.424176     -1.062259      0.141845
  O       0.246393      2.644420     -0.205670
  H       1.931594     -1.541677      0.067274
  H      -0.297575     -2.347119      0.184564
  H      -1.884373      1.376668     -0.055544
  H       2.327640      0.940407     -0.130164
12
Coordinates from ORCA-job Uracil_0 E -414.306036663982
  C       1.327113      0.515721     -0.072506
  C       1.114475     -0.816639      0.033277
  N      -0.151090     -1.347031      0.105852
  C      -1.316328     -0.577831      0.078608
  N      -1.060815      0.779422     -0.031325
  C       0.187423      1.435893     -0.113388
  O      -2.423976     -1.062741      0.140718
  O       0.244991      2.644480     -0.205811
  H       1.931620     -1.541292      0.066788
  H      -0.298287     -2.347264      0.183956
  H      -1.883442      1.377696     -0.056214
  H       2.328315      0.939586     -0.129985
12
Coordinates from ORCA-job Uracil_0 E -414.306038709172
  C       1.326972      0.515802     -0.072640
  C       1.114336     -0.816491      0.033250
  N      -0.151057     -1.346968      0.105714
  C      -1.316159     -0.577884      0.077271
  N      -1.060952      0.779277     -0.031501
  C       0.187498      1.435771     -0.112969
  O      -2.423688     -1.062960      0.141319
  O       0.244877      2.644390     -0.205753
  H       1.931555     -1.541048      0.067002
  H      -0.298448     -2.347166      0.184290
  H      -1.883256      1.378021     -0.055952
  H       2.328323      0.939256     -0.130061
12
Coordinates from ORCA-job Uracil_0 E -414.306049926957
  C       1.326848      0.515928     -0.072700
  C       1.114242     -0.816397      0.033228
  N      -0.151011     -1.346899      0.105652
  C      -1.316051     -0.577870      0.076970
  N      -1.061074      0.779115     -0.031564
  C       0.187542      1.435657     -0.113070
  O      -2.423510     -1.063280      0.141526
  O       0.244721      2.644340     -0.205623
  H       1.931558     -1.540834      0.067083
  H      -0.298641     -2.347077      0.184357
  H      -1.883007      1.378386     -0.055884
  H       2.328382      0.938932     -0.130006
