12
* (null), Energy   -1000.0000000
C     1.326706    0.515754   -0.072626    0.013939   -0.043144    0.002832
C     1.114284   -0.816584    0.032594   -0.028090   -0.013304    0.001537
N    -0.151041   -1.347120    0.103530    0.226021    0.038375   -0.008684
C    -1.315628   -0.577682    0.076752   -1.258696   -0.594084    0.078114
N    -1.060936    0.779065   -0.032267    0.155840    0.143639   -0.014840
C     0.187706    1.435734   -0.112929   -0.016918    0.277046   -0.020329
O    -2.423226   -1.063291    0.142349    0.726951    0.321772   -0.043402
O     0.244598    2.644464   -0.204665   -0.012789   -0.184368    0.014069
H     1.931646   -1.540867    0.066907   -0.012374   -0.006634    0.000651
H    -0.299216   -2.347153    0.186398   -0.871182    0.184774    0.007845
H    -1.882973    1.378347   -0.056429   -0.351700   -0.529889    0.049030
H     2.328081    0.939334   -0.129643   -0.037796    0.091970   -0.005681
12
* Frequency(31) 1858.9058
C     1.328290    0.510850   -0.072304    0.013939   -0.043144    0.002832
C     1.111091   -0.818096    0.032769   -0.028090   -0.013304    0.001537
N    -0.125355   -1.342759    0.102543    0.226021    0.038375   -0.008684
C    -1.458672   -0.645196    0.085629   -1.258696   -0.594084    0.078114
N    -1.043225    0.795388   -0.033954    0.155840    0.143639   -0.014840
C     0.185783    1.467219   -0.115240   -0.016918    0.277046   -0.020329
O    -2.340612   -1.026723    0.137416    0.726951    0.321772   -0.043402
O     0.243145    2.623512   -0.203066   -0.012789   -0.184368    0.014069
H     1.930240   -1.541621    0.066981   -0.012374   -0.006634    0.000651
H    -0.398222   -2.326155    0.187289   -0.871182    0.184774    0.007845
H    -1.922942    1.318128   -0.050857   -0.351700   -0.529889    0.049030
H     2.323785    0.949786   -0.130289   -0.037796    0.091970   -0.005681
12
* Frequency(31) 1858.9058
C     1.329702    0.506479   -0.072017    0.013939   -0.043144    0.002832
C     1.108245   -0.819444    0.032925   -0.028090   -0.013304    0.001537
N    -0.102453   -1.338870    0.101663    0.226021    0.038375   -0.008684
C    -1.586216   -0.705395    0.093544   -1.258696   -0.594084    0.078114
N    -1.027434    0.809943   -0.035457    0.155840    0.143639   -0.014840
C     0.184069    1.495292   -0.117299   -0.016918    0.277046   -0.020329
O    -2.266950   -0.994118    0.133018    0.726951    0.321772   -0.043402
O     0.241849    2.604830   -0.201640   -0.012789   -0.184368    0.014069
H     1.928986   -1.542294    0.067047   -0.012374   -0.006634    0.000651
H    -0.486498   -2.307432    0.188084   -0.871182    0.184774    0.007845
H    -1.958580    1.264434   -0.045889   -0.351700   -0.529889    0.049030
H     2.319956    0.959105   -0.130865   -0.037796    0.091970   -0.005681
12
* Frequency(31) 1858.9058
C     1.330790    0.503112   -0.071796    0.013939   -0.043144    0.002832
C     1.106053   -0.820482    0.033045   -0.028090   -0.013304    0.001537
N    -0.084815   -1.335876    0.100985    0.226021    0.038375   -0.008684
C    -1.684436   -0.751753    0.099640   -1.258696   -0.594084    0.078114
N    -1.015273    0.821152   -0.036615    0.155840    0.143639   -0.014840
C     0.182749    1.516911   -0.118886   -0.016918    0.277046   -0.020329
O    -2.210223   -0.969009    0.129631    0.726951    0.321772   -0.043402
O     0.240851    2.590443   -0.200543   -0.012789   -0.184368    0.014069
H     1.928020   -1.542811    0.067098   -0.012374   -0.006634    0.000651
H    -0.554480   -2.293013    0.188696   -0.871182    0.184774    0.007845
H    -1.986024    1.223085   -0.042062   -0.351700   -0.529889    0.049030
H     2.317006    0.966282   -0.131308   -0.037796    0.091970   -0.005681
12
* Frequency(31) 1858.9058
C     1.331435    0.501115   -0.071665    0.013939   -0.043144    0.002832
C     1.104753   -0.821098    0.033116   -0.028090   -0.013304    0.001537
N    -0.074355   -1.334100    0.100583    0.226021    0.038375   -0.008684
C    -1.742691   -0.779249    0.103255   -1.258696   -0.594084    0.078114
N    -1.008061    0.827800   -0.037302    0.155840    0.143639   -0.014840
C     0.181966    1.529733   -0.119827   -0.016918    0.277046   -0.020329
O    -2.176579   -0.954117    0.127623    0.726951    0.321772   -0.043402
O     0.240259    2.581910   -0.199891   -0.012789   -0.184368    0.014069
H     1.927448   -1.543118    0.067128   -0.012374   -0.006634    0.000651
H    -0.594800   -2.284461    0.189059   -0.871182    0.184774    0.007845
H    -2.002301    1.198561   -0.039793   -0.351700   -0.529889    0.049030
H     2.315257    0.970538   -0.131571   -0.037796    0.091970   -0.005681
12
* Frequency(31) 1858.9058
C     1.331568    0.500705   -0.071638    0.013939   -0.043144    0.002832
C     1.104486   -0.821224    0.033130   -0.028090   -0.013304    0.001537
N    -0.072204   -1.333735    0.100501    0.226021    0.038375   -0.008684
C    -1.754667   -0.784901    0.103998   -1.258696   -0.594084    0.078114
N    -1.006578    0.829167   -0.037443    0.155840    0.143639   -0.014840
C     0.181805    1.532369   -0.120020   -0.016918    0.277046   -0.020329
O    -2.169662   -0.951055    0.127210    0.726951    0.321772   -0.043402
O     0.240137    2.580156   -0.199758   -0.012789   -0.184368    0.014069
H     1.927330   -1.543181    0.067134   -0.012374   -0.006634    0.000651
H    -0.603089   -2.282703    0.189134   -0.871182    0.184774    0.007845
H    -2.005648    1.193519   -0.039327   -0.351700   -0.529889    0.049030
H     2.314897    0.971413   -0.131625   -0.037796    0.091970   -0.005681
12
* Frequency(31) 1858.9058
C     1.331174    0.501925   -0.071718    0.013939   -0.043144    0.002832
C     1.105280   -0.820848    0.033087   -0.028090   -0.013304    0.001537
N    -0.078597   -1.334820    0.100746    0.226021    0.038375   -0.008684
C    -1.719066   -0.768098    0.101789   -1.258696   -0.594084    0.078114
N    -1.010986    0.825104   -0.037024    0.155840    0.143639   -0.014840
C     0.182283    1.524533   -0.119445   -0.016918    0.277046   -0.020329
O    -2.190223   -0.960156    0.128437    0.726951    0.321772   -0.043402
O     0.240499    2.585371   -0.200156   -0.012789   -0.184368    0.014069
H     1.927680   -1.542994    0.067116   -0.012374   -0.006634    0.000651
H    -0.578448   -2.287929    0.188912   -0.871182    0.184774    0.007845
H    -1.995700    1.208506   -0.040714   -0.351700   -0.529889    0.049030
H     2.315966    0.968812   -0.131464   -0.037796    0.091970   -0.005681
12
* Frequency(31) 1858.9058
C     1.330295    0.504644   -0.071897    0.013939   -0.043144    0.002832
C     1.107050   -0.820010    0.032990   -0.028090   -0.013304    0.001537
N    -0.092840   -1.337238    0.101294    0.226021    0.038375   -0.008684
C    -1.639747   -0.730660    0.096866   -1.258696   -0.594084    0.078114
N    -1.020806    0.816052   -0.036088    0.155840    0.143639   -0.014840
C     0.183350    1.507074   -0.118164   -0.016918    0.277046   -0.020329
O    -2.236034   -0.980434    0.131172    0.726951    0.321772   -0.043402
O     0.241305    2.596989   -0.201042   -0.012789   -0.184368    0.014069
H     1.928460   -1.542576    0.067075   -0.012374   -0.006634    0.000651
H    -0.523549   -2.299573    0.188418   -0.871182    0.184774    0.007845
H    -1.973537    1.241898   -0.043803   -0.351700   -0.529889    0.049030
H     2.318348    0.963016   -0.131106   -0.037796    0.091970   -0.005681
12
* Frequency(31) 1858.9058
C     1.329028    0.508567   -0.072154    0.013939   -0.043144    0.002832
C     1.109604   -0.818800    0.032850   -0.028090   -0.013304    0.001537
N    -0.113390   -1.340728    0.102083    0.226021    0.038375   -0.008684
C    -1.525304   -0.676645    0.089764   -1.258696   -0.594084    0.078114
N    -1.034976    0.802992   -0.034739    0.155840    0.143639   -0.014840
C     0.184888    1.481885   -0.116316   -0.016918    0.277046   -0.020329
O    -2.302129   -1.009690    0.135119    0.726951    0.321772   -0.043402
O     0.242468    2.613752   -0.202321   -0.012789   -0.184368    0.014069
H     1.929585   -1.541972    0.067016   -0.012374   -0.006634    0.000651
H    -0.444339   -2.316373    0.187704   -0.871182    0.184774    0.007845
H    -1.941560    1.290077   -0.048261   -0.351700   -0.529889    0.049030
H     2.321785    0.954654   -0.130590   -0.037796    0.091970   -0.005681
12
* Frequency(31) 1858.9058
C     1.327509    0.513268   -0.072463    0.013939   -0.043144    0.002832
C     1.112665   -0.817350    0.032683   -0.028090   -0.013304    0.001537
N    -0.138021   -1.344909    0.103029    0.226021    0.038375   -0.008684
C    -1.388139   -0.611906    0.081252   -1.258696   -0.594084    0.078114
N    -1.051958    0.787339   -0.033122    0.155840    0.143639   -0.014840
C     0.186731    1.451694   -0.114100   -0.016918    0.277046   -0.020329
O    -2.381348   -1.044754    0.139848    0.726951    0.321772   -0.043402
O     0.243861    2.633843   -0.203855   -0.012789   -0.184368    0.014069
H     1.930933   -1.541250    0.066945   -0.012374   -0.006634    0.000651
H    -0.349403   -2.336509    0.186850   -0.871182    0.184774    0.007845
H    -1.903234    1.347821   -0.053604   -0.351700   -0.529889    0.049030
H     2.325903    0.944632   -0.129971   -0.037796    0.091970   -0.005681
12
* Frequency(31) 1858.9058
C     1.325903    0.518239   -0.072789    0.013939   -0.043144    0.002832
C     1.115902   -0.815817    0.032506   -0.028090   -0.013304    0.001537
N    -0.164062   -1.349331    0.104030    0.226021    0.038375   -0.008684
C    -1.243117   -0.543458    0.072252   -1.258696   -0.594084    0.078114
N    -1.069913    0.770790   -0.031412    0.155840    0.143639   -0.014840
C     0.188681    1.419774   -0.111758   -0.016918    0.277046   -0.020329
O    -2.465104   -1.081827    0.144849    0.726951    0.321772   -0.043402
O     0.245335    2.655085   -0.205476   -0.012789   -0.184368    0.014069
H     1.932359   -1.540485    0.066870   -0.012374   -0.006634    0.000651
H    -0.249029   -2.357798    0.185946   -0.871182    0.184774    0.007845
H    -1.862712    1.408873   -0.059253   -0.351700   -0.529889    0.049030
H     2.330258    0.934036   -0.129316   -0.037796    0.091970   -0.005681
12
* Frequency(31) 1858.9058
C     1.324384    0.522941   -0.073098    0.013939   -0.043144    0.002832
C     1.118963   -0.814367    0.032338   -0.028090   -0.013304    0.001537
N    -0.188692   -1.353513    0.104976    0.226021    0.038375   -0.008684
C    -1.105953   -0.478718    0.063740   -1.258696   -0.594084    0.078114
N    -1.086896    0.755137   -0.029795    0.155840    0.143639   -0.014840
C     0.190524    1.389583   -0.109543   -0.016918    0.277046   -0.020329
O    -2.544323   -1.116892    0.149579    0.726951    0.321772   -0.043402
O     0.246729    2.675177   -0.207009   -0.012789   -0.184368    0.014069
H     1.933707   -1.539762    0.066799   -0.012374   -0.006634    0.000651
H    -0.154093   -2.377933    0.185091   -0.871182    0.184774    0.007845
H    -1.824386    1.466617   -0.064596   -0.351700   -0.529889    0.049030
H     2.334377    0.924013   -0.128697   -0.037796    0.091970   -0.005681
12
* Frequency(31) 1858.9058
C     1.323117    0.526863   -0.073355    0.013939   -0.043144    0.002832
C     1.121517   -0.813158    0.032198   -0.028090   -0.013304    0.001537
N    -0.209242   -1.357002    0.105766    0.226021    0.038375   -0.008684
C    -0.991510   -0.424703    0.056637   -1.258696   -0.594084    0.078114
N    -1.101065    0.742077   -0.028446    0.155840    0.143639   -0.014840
C     0.192063    1.364394   -0.107695   -0.016918    0.277046   -0.020329
O    -2.610418   -1.146148    0.153525    0.726951    0.321772   -0.043402
O     0.247891    2.691940   -0.208288   -0.012789   -0.184368    0.014069
H     1.934832   -1.539159    0.066740   -0.012374   -0.006634    0.000651
H    -0.074884   -2.394733    0.184378   -0.871182    0.184774    0.007845
H    -1.792409    1.514795   -0.069054   -0.351700   -0.529889    0.049030
H     2.337813    0.915651   -0.128181   -0.037796    0.091970   -0.005681
12
* Frequency(31) 1858.9058
C     1.322238    0.529582   -0.073534    0.013939   -0.043144    0.002832
C     1.123287   -0.812319    0.032102   -0.028090   -0.013304    0.001537
N    -0.223486   -1.359420    0.106313    0.226021    0.038375   -0.008684
C    -0.912190   -0.387266    0.051715   -1.258696   -0.594084    0.078114
N    -1.110886    0.733025   -0.027511    0.155840    0.143639   -0.014840
C     0.193129    1.346935   -0.106413   -0.016918    0.277046   -0.020329
O    -2.656229   -1.166425    0.156260    0.726951    0.321772   -0.043402
O     0.248697    2.703558   -0.209175   -0.012789   -0.184368    0.014069
H     1.935612   -1.538741    0.066699   -0.012374   -0.006634    0.000651
H    -0.019984   -2.406377    0.183883   -0.871182    0.184774    0.007845
H    -1.770246    1.548187   -0.072144   -0.351700   -0.529889    0.049030
H     2.340195    0.909856   -0.127823   -0.037796    0.091970   -0.005681
12
* Frequency(31) 1858.9058
C     1.321844    0.530802   -0.073614    0.013939   -0.043144    0.002832
C     1.124081   -0.811943    0.032058   -0.028090   -0.013304    0.001537
N    -0.229878   -1.360505    0.106559    0.226021    0.038375   -0.008684
C    -0.876589   -0.370463    0.049506   -1.258696   -0.594084    0.078114
N    -1.115293    0.728963   -0.027091    0.155840    0.143639   -0.014840
C     0.193607    1.339099   -0.105839   -0.016918    0.277046   -0.020329
O    -2.676790   -1.175526    0.157487    0.726951    0.321772   -0.043402
O     0.249059    2.708773   -0.209573   -0.012789   -0.184368    0.014069
H     1.935962   -1.538554    0.066680   -0.012374   -0.006634    0.000651
H     0.004656   -2.411603    0.183661   -0.871182    0.184774    0.007845
H    -1.760299    1.563175   -0.073531   -0.351700   -0.529889    0.049030
H     2.341264    0.907254   -0.127662   -0.037796    0.091970   -0.005681
12
* Frequency(31) 1858.9058
C     1.321977    0.530392   -0.073587    0.013939   -0.043144    0.002832
C     1.123814   -0.812070    0.032073   -0.028090   -0.013304    0.001537
N    -0.227728   -1.360140    0.106476    0.226021    0.038375   -0.008684
C    -0.888565   -0.376115    0.050249   -1.258696   -0.594084    0.078114
N    -1.113811    0.730329   -0.027232    0.155840    0.143639   -0.014840
C     0.193446    1.341735   -0.106032   -0.016918    0.277046   -0.020329
O    -2.669873   -1.172465    0.157074    0.726951    0.321772   -0.043402
O     0.248937    2.707018   -0.209439   -0.012789   -0.184368    0.014069
H     1.935844   -1.538617    0.066686   -0.012374   -0.006634    0.000651
H    -0.003633   -2.409845    0.183736   -0.871182    0.184774    0.007845
H    -1.763645    1.558133   -0.073064   -0.351700   -0.529889    0.049030
H     2.340905    0.908129   -0.127716   -0.037796    0.091970   -0.005681
12
* Frequency(31) 1858.9058
C     1.322622    0.528395   -0.073456    0.013939   -0.043144    0.002832
C     1.122514   -0.812685    0.032144   -0.028090   -0.013304    0.001537
N    -0.217267   -1.358364    0.106074    0.226021    0.038375   -0.008684
C    -0.946820   -0.403610    0.053864   -1.258696   -0.594084    0.078114
N    -1.106598    0.736977   -0.027919    0.155840    0.143639   -0.014840
C     0.192663    1.354557   -0.106973   -0.016918    0.277046   -0.020329
O    -2.636229   -1.157573    0.155066    0.726951    0.321772   -0.043402
O     0.248345    2.698486   -0.208788   -0.012789   -0.184368    0.014069
H     1.935272   -1.538924    0.066716   -0.012374   -0.006634    0.000651
H    -0.043953   -2.401294    0.184099   -0.871182    0.184774    0.007845
H    -1.779922    1.533609   -0.070795   -0.351700   -0.529889    0.049030
H     2.339155    0.912386   -0.127979   -0.037796    0.091970   -0.005681
12
* Frequency(31) 1858.9058
C     1.323710    0.525028   -0.073235    0.013939   -0.043144    0.002832
C     1.120322   -0.813724    0.032264   -0.028090   -0.013304    0.001537
N    -0.199630   -1.355370    0.105397    0.226021    0.038375   -0.008684
C    -1.045041   -0.449969    0.059959   -1.258696   -0.594084    0.078114
N    -1.094437    0.748186   -0.029077    0.155840    0.143639   -0.014840
C     0.191343    1.376176   -0.108559   -0.016918    0.277046   -0.020329
O    -2.579502   -1.132464    0.151679    0.726951    0.321772   -0.043402
O     0.247347    2.684099   -0.207690   -0.012789   -0.184368    0.014069
H     1.934306   -1.539441    0.066767   -0.012374   -0.006634    0.000651
H    -0.111934   -2.386875    0.184711   -0.871182    0.184774    0.007845
H    -1.807367    1.492259   -0.066969   -0.351700   -0.529889    0.049030
H     2.336206    0.919563   -0.128422   -0.037796    0.091970   -0.005681
12
* Frequency(31) 1858.9058
C     1.325122    0.520657   -0.072948    0.013939   -0.043144    0.002832
C     1.117476   -0.815072    0.032420   -0.028090   -0.013304    0.001537
N    -0.176727   -1.351481    0.104517    0.226021    0.038375   -0.008684
C    -1.172584   -0.510167    0.067875   -1.258696   -0.594084    0.078114
N    -1.078646    0.762741   -0.030581    0.155840    0.143639   -0.014840
C     0.189629    1.404249   -0.110619   -0.016918    0.277046   -0.020329
O    -2.505840   -1.099859    0.147281    0.726951    0.321772   -0.043402
O     0.246052    2.665417   -0.206264   -0.012789   -0.184368    0.014069
H     1.933052   -1.540114    0.066833   -0.012374   -0.006634    0.000651
H    -0.200211   -2.368152    0.185506   -0.871182    0.184774    0.007845
H    -1.843004    1.438566   -0.062001   -0.351700   -0.529889    0.049030
H     2.332376    0.928882   -0.128998   -0.037796    0.091970   -0.005681
12
* Frequency(31) 1858.9058
C     1.326706    0.515754   -0.072626    0.013939   -0.043144    0.002832
C     1.114284   -0.816584    0.032594   -0.028090   -0.013304    0.001537
N    -0.151041   -1.347120    0.103530    0.226021    0.038375   -0.008684
C    -1.315628   -0.577682    0.076752   -1.258696   -0.594084    0.078114
N    -1.060936    0.779065   -0.032267    0.155840    0.143639   -0.014840
C     0.187706    1.435734   -0.112929   -0.016918    0.277046   -0.020329
O    -2.423226   -1.063291    0.142349    0.726951    0.321772   -0.043402
O     0.244598    2.644464   -0.204665   -0.012789   -0.184368    0.014069
H     1.931646   -1.540867    0.066907   -0.012374   -0.006634    0.000651
H    -0.299216   -2.347153    0.186398   -0.871182    0.184774    0.007845
H    -1.882973    1.378347   -0.056429   -0.351700   -0.529889    0.049030
H     2.328081    0.939334   -0.129643   -0.037796    0.091970   -0.005681
