12
* (null), Energy   -1000.0000000
C     1.629965    0.315610   -0.065301   -0.203973   -0.170569    0.017956
C     1.417359   -1.016714    0.040627   -0.153267    0.074024   -0.001451
N     0.152106   -1.547217    0.113051    0.283521    0.154060   -0.018939
C    -1.012934   -0.778188    0.084369   -0.033689    0.017864   -0.000421
N    -0.757957    0.578797   -0.024165   -0.095994   -0.020982    0.004017
C     0.490659    1.235340   -0.105671    0.138673    0.004768   -0.003891
O    -2.120393   -1.263598    0.148925   -0.040717    0.025427   -0.000893
O     0.547838    2.444022   -0.198224   -0.020470   -0.021858    0.002160
H     2.234675   -1.741152    0.074482    0.179486    0.476740   -0.041300
H     0.004476   -2.547394    0.191756    0.909173    0.082197   -0.029472
H    -1.579890    1.178069   -0.048486   -0.083043    0.001381    0.002025
H     2.631499    0.738614   -0.122607    0.365505   -1.585483    0.110697
12
* Frequency(22) 1086.2537
C     1.606785    0.296226   -0.063260   -0.203973   -0.170569    0.017956
C     1.399941   -1.008302    0.040462   -0.153267    0.074024   -0.001451
N     0.184327   -1.529709    0.110899    0.283521    0.154060   -0.018939
C    -1.016763   -0.776158    0.084321   -0.033689    0.017864   -0.000421
N    -0.768866    0.576412   -0.023708   -0.095994   -0.020982    0.004017
C     0.506418    1.235882   -0.106113    0.138673    0.004768   -0.003891
O    -2.125020   -1.260708    0.148823   -0.040717    0.025427   -0.000893
O     0.545512    2.441538   -0.197978   -0.020470   -0.021858    0.002160
H     2.255073   -1.686973    0.069788    0.179486    0.476740   -0.041300
H     0.107799   -2.538053    0.188406    0.909173    0.082197   -0.029472
H    -1.589327    1.178225   -0.048255   -0.083043    0.001381    0.002025
H     2.673037    0.558432   -0.110027    0.365505   -1.585483    0.110697
12
* Frequency(22) 1086.2537
C     1.586116    0.278942   -0.061441   -0.203973   -0.170569    0.017956
C     1.384410   -1.000801    0.040315   -0.153267    0.074024   -0.001451
N     0.213056   -1.514098    0.108980    0.283521    0.154060   -0.018939
C    -1.020176   -0.774347    0.084279   -0.033689    0.017864   -0.000421
N    -0.778593    0.574286   -0.023301   -0.095994   -0.020982    0.004017
C     0.520470    1.236365   -0.106507    0.138673    0.004768   -0.003891
O    -2.129146   -1.258132    0.148733   -0.040717    0.025427   -0.000893
O     0.543438    2.439323   -0.197759   -0.020470   -0.021858    0.002160
H     2.273260   -1.638665    0.065603    0.179486    0.476740   -0.041300
H     0.199925   -2.529724    0.185420    0.909173    0.082197   -0.029472
H    -1.597742    1.178365   -0.048050   -0.083043    0.001381    0.002025
H     2.710073    0.397776   -0.098810    0.365505   -1.585483    0.110697
12
* Frequency(22) 1086.2537
C     1.570199    0.265632   -0.060040   -0.203973   -0.170569    0.017956
C     1.372450   -0.995024    0.040202   -0.153267    0.074024   -0.001451
N     0.235180   -1.502076    0.107502    0.283521    0.154060   -0.018939
C    -1.022805   -0.772953    0.084246   -0.033689    0.017864   -0.000421
N    -0.786084    0.572649   -0.022988   -0.095994   -0.020982    0.004017
C     0.531291    1.236737   -0.106811    0.138673    0.004768   -0.003891
O    -2.132323   -1.256148    0.148663   -0.040717    0.025427   -0.000893
O     0.541841    2.437618   -0.197591   -0.020470   -0.021858    0.002160
H     2.287266   -1.601463    0.062380    0.179486    0.476740   -0.041300
H     0.270872   -2.523310    0.183120    0.909173    0.082197   -0.029472
H    -1.604222    1.178473   -0.047892   -0.083043    0.001381    0.002025
H     2.738595    0.274055   -0.090172    0.365505   -1.585483    0.110697
12
* Frequency(22) 1086.2537
C     1.560759    0.257738   -0.059209   -0.203973   -0.170569    0.017956
C     1.365357   -0.991598    0.040135   -0.153267    0.074024   -0.001451
N     0.248302   -1.494946    0.106626    0.283521    0.154060   -0.018939
C    -1.024365   -0.772127    0.084226   -0.033689    0.017864   -0.000421
N    -0.790526    0.571678   -0.022802   -0.095994   -0.020982    0.004017
C     0.537709    1.236957   -0.106991    0.138673    0.004768   -0.003891
O    -2.134208   -1.254971    0.148622   -0.040717    0.025427   -0.000893
O     0.540893    2.436606   -0.197491   -0.020470   -0.021858    0.002160
H     2.295573   -1.579398    0.060469    0.179486    0.476740   -0.041300
H     0.312950   -2.519506    0.181756    0.909173    0.082197   -0.029472
H    -1.608065    1.178537   -0.047798   -0.083043    0.001381    0.002025
H     2.755511    0.200676   -0.085049    0.365505   -1.585483    0.110697
12
* Frequency(22) 1086.2537
C     1.558818    0.256115   -0.059038   -0.203973   -0.170569    0.017956
C     1.363899   -0.990894    0.040121   -0.153267    0.074024   -0.001451
N     0.251000   -1.493480    0.106446    0.283521    0.154060   -0.018939
C    -1.024685   -0.771957    0.084222   -0.033689    0.017864   -0.000421
N    -0.791440    0.571478   -0.022764   -0.095994   -0.020982    0.004017
C     0.539028    1.237003   -0.107028    0.138673    0.004768   -0.003891
O    -2.134595   -1.254729    0.148613   -0.040717    0.025427   -0.000893
O     0.540699    2.436398   -0.197470   -0.020470   -0.021858    0.002160
H     2.297280   -1.574862    0.060076    0.179486    0.476740   -0.041300
H     0.321600   -2.518723    0.181476    0.909173    0.082197   -0.029472
H    -1.608855    1.178550   -0.047779   -0.083043    0.001381    0.002025
H     2.758989    0.185590   -0.083996    0.365505   -1.585483    0.110697
12
* Frequency(22) 1086.2537
C     1.564587    0.260939   -0.059546   -0.203973   -0.170569    0.017956
C     1.368234   -0.992988    0.040162   -0.153267    0.074024   -0.001451
N     0.242981   -1.497838    0.106981    0.283521    0.154060   -0.018939
C    -1.023732   -0.772462    0.084234   -0.033689    0.017864   -0.000421
N    -0.788725    0.572072   -0.022877   -0.095994   -0.020982    0.004017
C     0.535106    1.236868   -0.106918    0.138673    0.004768   -0.003891
O    -2.133443   -1.255448    0.148639   -0.040717    0.025427   -0.000893
O     0.541278    2.437016   -0.197531   -0.020470   -0.021858    0.002160
H     2.292204   -1.588347    0.061244    0.179486    0.476740   -0.041300
H     0.295885   -2.521048    0.182309    0.909173    0.082197   -0.029472
H    -1.606507    1.178511   -0.047837   -0.083043    0.001381    0.002025
H     2.748651    0.230434   -0.087127    0.365505   -1.585483    0.110697
12
* Frequency(22) 1086.2537
C     1.577441    0.271688   -0.060677   -0.203973   -0.170569    0.017956
C     1.377892   -0.997653    0.040253   -0.153267    0.074024   -0.001451
N     0.225114   -1.507546    0.108175    0.283521    0.154060   -0.018939
C    -1.021609   -0.773588    0.084261   -0.033689    0.017864   -0.000421
N    -0.782675    0.573394   -0.023130   -0.095994   -0.020982    0.004017
C     0.526367    1.236568   -0.106673    0.138673    0.004768   -0.003891
O    -2.130878   -1.257050    0.148695   -0.040717    0.025427   -0.000893
O     0.542567    2.438394   -0.197668   -0.020470   -0.021858    0.002160
H     2.280893   -1.618389    0.063847    0.179486    0.476740   -0.041300
H     0.238591   -2.526228    0.184167    0.909173    0.082197   -0.029472
H    -1.601274    1.178424   -0.047964   -0.083043    0.001381    0.002025
H     2.725618    0.330347   -0.094102    0.365505   -1.585483    0.110697
12
* Frequency(22) 1086.2537
C     1.595987    0.287196   -0.062310   -0.203973   -0.170569    0.017956
C     1.391828   -1.004383    0.040385   -0.153267    0.074024   -0.001451
N     0.199336   -1.521553    0.109897    0.283521    0.154060   -0.018939
C    -1.018546   -0.775212    0.084299   -0.033689    0.017864   -0.000421
N    -0.773948    0.575302   -0.023496   -0.095994   -0.020982    0.004017
C     0.513759    1.236134   -0.106319    0.138673    0.004768   -0.003891
O    -2.127175   -1.259362    0.148776   -0.040717    0.025427   -0.000893
O     0.544429    2.440381   -0.197864   -0.020470   -0.021858    0.002160
H     2.264574   -1.661735    0.067602    0.179486    0.476740   -0.041300
H     0.155928   -2.533702    0.186846    0.909173    0.082197   -0.029472
H    -1.593723    1.178299   -0.048148   -0.083043    0.001381    0.002025
H     2.692385    0.474502   -0.104167    0.365505   -1.585483    0.110697
12
* Frequency(22) 1086.2537
C     1.618214    0.305784   -0.064266   -0.203973   -0.170569    0.017956
C     1.408530   -1.012450    0.040544   -0.153267    0.074024   -0.001451
N     0.168439   -1.538342    0.111960    0.283521    0.154060   -0.018939
C    -1.014875   -0.777159    0.084345   -0.033689    0.017864   -0.000421
N    -0.763487    0.577588   -0.023933   -0.095994   -0.020982    0.004017
C     0.498647    1.235615   -0.105895    0.138673    0.004768   -0.003891
O    -2.122738   -1.262133    0.148873   -0.040717    0.025427   -0.000893
O     0.546659    2.442763   -0.198099   -0.020470   -0.021858    0.002160
H     2.245015   -1.713688    0.072102    0.179486    0.476740   -0.041300
H     0.056852   -2.542659    0.190058    0.909173    0.082197   -0.029472
H    -1.584674    1.178148   -0.048369   -0.083043    0.001381    0.002025
H     2.652555    0.647278   -0.116230    0.365505   -1.585483    0.110697
12
* Frequency(22) 1086.2537
C     1.641715    0.325436   -0.066335   -0.203973   -0.170569    0.017956
C     1.426188   -1.020979    0.040711   -0.153267    0.074024   -0.001451
N     0.135773   -1.556092    0.114142    0.283521    0.154060   -0.018939
C    -1.010993   -0.779217    0.084394   -0.033689    0.017864   -0.000421
N    -0.752427    0.580006   -0.024396   -0.095994   -0.020982    0.004017
C     0.482670    1.235065   -0.105447    0.138673    0.004768   -0.003891
O    -2.118047   -1.265063    0.148976   -0.040717    0.025427   -0.000893
O     0.549018    2.445281   -0.198348   -0.020470   -0.021858    0.002160
H     2.224335   -1.768616    0.076861    0.179486    0.476740   -0.041300
H    -0.047899   -2.552130    0.193454    0.909173    0.082197   -0.029472
H    -1.575106    1.177989   -0.048602   -0.083043    0.001381    0.002025
H     2.610443    0.829951   -0.128984    0.365505   -1.585483    0.110697
12
* Frequency(22) 1086.2537
C     1.663943    0.344024   -0.068292   -0.203973   -0.170569    0.017956
C     1.442891   -1.029045    0.040869   -0.153267    0.074024   -0.001451
N     0.104877   -1.572881    0.116206    0.283521    0.154060   -0.018939
C    -1.007322   -0.781164    0.084439   -0.033689    0.017864   -0.000421
N    -0.741966    0.582292   -0.024834   -0.095994   -0.020982    0.004017
C     0.467558    1.234546   -0.105023    0.138673    0.004768   -0.003891
O    -2.113610   -1.267833    0.149074   -0.040717    0.025427   -0.000893
O     0.551248    2.447663   -0.198583   -0.020470   -0.021858    0.002160
H     2.204776   -1.820568    0.081361    0.179486    0.476740   -0.041300
H    -0.146975   -2.561087    0.196665    0.909173    0.082197   -0.029472
H    -1.566056    1.177839   -0.048823   -0.083043    0.001381    0.002025
H     2.570613    1.002727   -0.141047    0.365505   -1.585483    0.110697
12
* Frequency(22) 1086.2537
C     1.682489    0.359532   -0.069925   -0.203973   -0.170569    0.017956
C     1.456826   -1.035776    0.041001   -0.153267    0.074024   -0.001451
N     0.079098   -1.586888    0.117928    0.283521    0.154060   -0.018939
C    -1.004259   -0.782788    0.084478   -0.033689    0.017864   -0.000421
N    -0.733238    0.584200   -0.025199   -0.095994   -0.020982    0.004017
C     0.454950    1.234112   -0.104669    0.138673    0.004768   -0.003891
O    -2.109908   -1.270145    0.149155   -0.040717    0.025427   -0.000893
O     0.553109    2.449650   -0.198780   -0.020470   -0.021858    0.002160
H     2.188457   -1.863914    0.085116    0.179486    0.476740   -0.041300
H    -0.229639   -2.568560    0.199345    0.909173    0.082197   -0.029472
H    -1.558506    1.177713   -0.049007   -0.083043    0.001381    0.002025
H     2.537380    1.146881   -0.151112    0.365505   -1.585483    0.110697
12
* Frequency(22) 1086.2537
C     1.695343    0.370281   -0.071056   -0.203973   -0.170569    0.017956
C     1.466484   -1.040441    0.041092   -0.153267    0.074024   -0.001451
N     0.061232   -1.596596    0.119122    0.283521    0.154060   -0.018939
C    -1.002136   -0.783914    0.084504   -0.033689    0.017864   -0.000421
N    -0.727189    0.585522   -0.025452   -0.095994   -0.020982    0.004017
C     0.446211    1.233812   -0.104424    0.138673    0.004768   -0.003891
O    -2.107342   -1.271748    0.149211   -0.040717    0.025427   -0.000893
O     0.554399    2.451028   -0.198916   -0.020470   -0.021858    0.002160
H     2.177146   -1.893957    0.087719    0.179486    0.476740   -0.041300
H    -0.286932   -2.573740    0.201202    0.909173    0.082197   -0.029472
H    -1.553273    1.177626   -0.049135   -0.083043    0.001381    0.002025
H     2.514347    1.246794   -0.158088    0.365505   -1.585483    0.110697
12
* Frequency(22) 1086.2537
C     1.701112    0.375105   -0.071564   -0.203973   -0.170569    0.017956
C     1.470819   -1.042534    0.041133   -0.153267    0.074024   -0.001451
N     0.053213   -1.600954    0.119657    0.283521    0.154060   -0.018939
C    -1.001183   -0.784419    0.084516   -0.033689    0.017864   -0.000421
N    -0.724474    0.586116   -0.025566   -0.095994   -0.020982    0.004017
C     0.442289    1.233677   -0.104314    0.138673    0.004768   -0.003891
O    -2.106190   -1.272467    0.149236   -0.040717    0.025427   -0.000893
O     0.554978    2.451646   -0.198977   -0.020470   -0.021858    0.002160
H     2.172069   -1.907441    0.088887    0.179486    0.476740   -0.041300
H    -0.312647   -2.576065    0.202036    0.909173    0.082197   -0.029472
H    -1.550924    1.177587   -0.049192   -0.083043    0.001381    0.002025
H     2.504009    1.291638   -0.161219    0.365505   -1.585483    0.110697
12
* Frequency(22) 1086.2537
C     1.699171    0.373482   -0.071393   -0.203973   -0.170569    0.017956
C     1.469361   -1.041830    0.041119   -0.153267    0.074024   -0.001451
N     0.055910   -1.599488    0.119477    0.283521    0.154060   -0.018939
C    -1.001504   -0.784249    0.084512   -0.033689    0.017864   -0.000421
N    -0.725387    0.585916   -0.025528   -0.095994   -0.020982    0.004017
C     0.443608    1.233722   -0.104351    0.138673    0.004768   -0.003891
O    -2.106578   -1.272225    0.149228   -0.040717    0.025427   -0.000893
O     0.554784    2.451438   -0.198956   -0.020470   -0.021858    0.002160
H     2.173777   -1.902905    0.088494    0.179486    0.476740   -0.041300
H    -0.303997   -2.575283    0.201755    0.909173    0.082197   -0.029472
H    -1.551714    1.177600   -0.049173   -0.083043    0.001381    0.002025
H     2.507487    1.276553   -0.160166    0.365505   -1.585483    0.110697
12
* Frequency(22) 1086.2537
C     1.689731    0.365588   -0.070562   -0.203973   -0.170569    0.017956
C     1.462268   -1.038404    0.041052   -0.153267    0.074024   -0.001451
N     0.069032   -1.592358    0.118601    0.283521    0.154060   -0.018939
C    -1.003063   -0.783422    0.084493   -0.033689    0.017864   -0.000421
N    -0.729830    0.584945   -0.025342   -0.095994   -0.020982    0.004017
C     0.450026    1.233943   -0.104531    0.138673    0.004768   -0.003891
O    -2.108462   -1.271048    0.149186   -0.040717    0.025427   -0.000893
O     0.553836    2.450426   -0.198856   -0.020470   -0.021858    0.002160
H     2.182084   -1.880840    0.086583    0.179486    0.476740   -0.041300
H    -0.261919   -2.571479    0.200391    0.909173    0.082197   -0.029472
H    -1.555558    1.177664   -0.049079   -0.083043    0.001381    0.002025
H     2.524403    1.203174   -0.155042    0.365505   -1.585483    0.110697
12
* Frequency(22) 1086.2537
C     1.673814    0.352278   -0.069161   -0.203973   -0.170569    0.017956
C     1.450308   -1.032628    0.040939   -0.153267    0.074024   -0.001451
N     0.091156   -1.580336    0.117123    0.283521    0.154060   -0.018939
C    -1.005692   -0.782028    0.084460   -0.033689    0.017864   -0.000421
N    -0.737320    0.583308   -0.025028   -0.095994   -0.020982    0.004017
C     0.460848    1.234315   -0.104834    0.138673    0.004768   -0.003891
O    -2.111639   -1.269064    0.149117   -0.040717    0.025427   -0.000893
O     0.552239    2.448721   -0.198688   -0.020470   -0.021858    0.002160
H     2.196090   -1.843639    0.083360    0.179486    0.476740   -0.041300
H    -0.190973   -2.565065    0.198092    0.909173    0.082197   -0.029472
H    -1.562038    1.177772   -0.048921   -0.083043    0.001381    0.002025
H     2.552925    1.079453   -0.146404    0.365505   -1.585483    0.110697
12
* Frequency(22) 1086.2537
C     1.653145    0.334994   -0.067341   -0.203973   -0.170569    0.017956
C     1.434777   -1.025127    0.040792   -0.153267    0.074024   -0.001451
N     0.119885   -1.564725    0.115204    0.283521    0.154060   -0.018939
C    -1.009106   -0.780218    0.084417   -0.033689    0.017864   -0.000421
N    -0.747047    0.581181   -0.024621   -0.095994   -0.020982    0.004017
C     0.474899    1.234798   -0.105229    0.138673    0.004768   -0.003891
O    -2.115765   -1.266487    0.149026   -0.040717    0.025427   -0.000893
O     0.550165    2.446506   -0.198469   -0.020470   -0.021858    0.002160
H     2.214277   -1.795331    0.079175    0.179486    0.476740   -0.041300
H    -0.098846   -2.556736    0.195105    0.909173    0.082197   -0.029472
H    -1.570452    1.177912   -0.048716   -0.083043    0.001381    0.002025
H     2.589961    0.918796   -0.135187    0.365505   -1.585483    0.110697
12
* Frequency(22) 1086.2537
C     1.629965    0.315610   -0.065301   -0.203973   -0.170569    0.017956
C     1.417359   -1.016714    0.040627   -0.153267    0.074024   -0.001451
N     0.152106   -1.547217    0.113051    0.283521    0.154060   -0.018939
C    -1.012934   -0.778188    0.084369   -0.033689    0.017864   -0.000421
N    -0.757957    0.578797   -0.024165   -0.095994   -0.020982    0.004017
C     0.490659    1.235340   -0.105671    0.138673    0.004768   -0.003891
O    -2.120393   -1.263598    0.148925   -0.040717    0.025427   -0.000893
O     0.547838    2.444022   -0.198224   -0.020470   -0.021858    0.002160
H     2.234675   -1.741152    0.074482    0.179486    0.476740   -0.041300
H     0.004476   -2.547394    0.191756    0.909173    0.082197   -0.029472
H    -1.579890    1.178069   -0.048486   -0.083043    0.001381    0.002025
H     2.631499    0.738614   -0.122607    0.365505   -1.585483    0.110697
