12
* (null), Energy   -1000.0000000
C     1.629965    0.315610   -0.065301   -0.018319   -0.054066   -0.719066
C     1.417359   -1.016714    0.040627   -0.001677   -0.004232   -0.059087
N     0.152106   -1.547217    0.113051    0.020284    0.059618    0.792589
C    -1.012934   -0.778188    0.084369    0.001602    0.004482    0.062676
N    -0.757957    0.578797   -0.024165    0.000651    0.001421    0.021179
C     0.490659    1.235340   -0.105671   -0.001693   -0.005132   -0.068040
O    -2.120393   -1.263598    0.148925   -0.011653   -0.033815   -0.451057
O     0.547838    2.444022   -0.198224    0.009447    0.027826    0.369112
H     2.234675   -1.741152    0.074482   -0.003897   -0.011061   -0.151192
H     0.004476   -2.547394    0.191756    0.021975    0.063589    0.846257
H    -1.579890    1.178069   -0.048486   -0.001161   -0.003896   -0.048687
H     2.631499    0.738614   -0.122607   -0.033460   -0.099349   -1.317596
12
* Frequency(7)  173.0789
C     1.627883    0.309466   -0.147019   -0.018319   -0.054066   -0.719066
C     1.417168   -1.017195    0.033912   -0.001677   -0.004232   -0.059087
N     0.154411   -1.540442    0.203125    0.020284    0.059618    0.792589
C    -1.012752   -0.777678    0.091492    0.001602    0.004482    0.062676
N    -0.757883    0.578958   -0.021758    0.000651    0.001421    0.021179
C     0.490466    1.234757   -0.113403   -0.001693   -0.005132   -0.068040
O    -2.121717   -1.267441    0.097664   -0.011653   -0.033815   -0.451057
O     0.548912    2.447184   -0.156276    0.009447    0.027826    0.369112
H     2.234232   -1.742409    0.057299   -0.003897   -0.011061   -0.151192
H     0.006974   -2.540168    0.287929    0.021975    0.063589    0.846257
H    -1.580022    1.177626   -0.054019   -0.001161   -0.003896   -0.048687
H     2.627697    0.727324   -0.272345   -0.033460   -0.099349   -1.317596
12
* Frequency(7)  173.0789
C     1.626027    0.303987   -0.219882   -0.018319   -0.054066   -0.719066
C     1.416998   -1.017624    0.027925   -0.001677   -0.004232   -0.059087
N     0.156467   -1.534401    0.283438    0.020284    0.059618    0.792589
C    -1.012590   -0.777224    0.097843    0.001602    0.004482    0.062676
N    -0.757817    0.579102   -0.019612    0.000651    0.001421    0.021179
C     0.490295    1.234237   -0.120298   -0.001693   -0.005132   -0.068040
O    -2.122898   -1.270867    0.051959   -0.011653   -0.033815   -0.451057
O     0.549869    2.450004   -0.118874    0.009447    0.027826    0.369112
H     2.233837   -1.743529    0.041979   -0.003897   -0.011061   -0.151192
H     0.009200   -2.533724    0.373679    0.021975    0.063589    0.846257
H    -1.580139    1.177231   -0.058952   -0.001161   -0.003896   -0.048687
H     2.624306    0.717257   -0.405857   -0.033460   -0.099349   -1.317596
12
* Frequency(7)  173.0789
C     1.624597    0.299768   -0.275993   -0.018319   -0.054066   -0.719066
C     1.416868   -1.017954    0.023314   -0.001677   -0.004232   -0.059087
N     0.158050   -1.529748    0.345286    0.020284    0.059618    0.792589
C    -1.012465   -0.776874    0.102734    0.001602    0.004482    0.062676
N    -0.757766    0.579213   -0.017959    0.000651    0.001421    0.021179
C     0.490162    1.233836   -0.125607   -0.001693   -0.005132   -0.068040
O    -2.123807   -1.273506    0.016761   -0.011653   -0.033815   -0.451057
O     0.550606    2.452175   -0.090071    0.009447    0.027826    0.369112
H     2.233533   -1.744392    0.030181   -0.003897   -0.011061   -0.151192
H     0.010915   -2.528762    0.439716    0.021975    0.063589    0.846257
H    -1.580230    1.176927   -0.062751   -0.001161   -0.003896   -0.048687
H     2.621695    0.709504   -0.508674   -0.033460   -0.099349   -1.317596
12
* Frequency(7)  173.0789
C     1.623750    0.297266   -0.309273   -0.018319   -0.054066   -0.719066
C     1.416790   -1.018150    0.020580   -0.001677   -0.004232   -0.059087
N     0.158988   -1.526989    0.381969    0.020284    0.059618    0.792589
C    -1.012391   -0.776667    0.105635    0.001602    0.004482    0.062676
N    -0.757736    0.579279   -0.016979    0.000651    0.001421    0.021179
C     0.490084    1.233599   -0.128756   -0.001693   -0.005132   -0.068040
O    -2.124346   -1.275071   -0.004115   -0.011653   -0.033815   -0.451057
O     0.551044    2.453463   -0.072987    0.009447    0.027826    0.369112
H     2.233353   -1.744904    0.023184   -0.003897   -0.011061   -0.151192
H     0.011932   -2.525819    0.478883    0.021975    0.063589    0.846257
H    -1.580284    1.176747   -0.065005   -0.001161   -0.003896   -0.048687
H     2.620147    0.704906   -0.569655   -0.033460   -0.099349   -1.317596
12
* Frequency(7)  173.0789
C     1.623575    0.296752   -0.316114   -0.018319   -0.054066   -0.719066
C     1.416774   -1.018191    0.020017   -0.001677   -0.004232   -0.059087
N     0.159181   -1.526422    0.389510    0.020284    0.059618    0.792589
C    -1.012375   -0.776624    0.106231    0.001602    0.004482    0.062676
N    -0.757730    0.579293   -0.016777    0.000651    0.001421    0.021179
C     0.490068    1.233550   -0.129404   -0.001693   -0.005132   -0.068040
O    -2.124457   -1.275393   -0.008406   -0.011653   -0.033815   -0.451057
O     0.551133    2.453728   -0.069476    0.009447    0.027826    0.369112
H     2.233316   -1.745010    0.021745   -0.003897   -0.011061   -0.151192
H     0.012141   -2.525214    0.486934    0.021975    0.063589    0.846257
H    -1.580295    1.176710   -0.065468   -0.001161   -0.003896   -0.048687
H     2.619828    0.703961   -0.582191   -0.033460   -0.099349   -1.317596
12
* Frequency(7)  173.0789
C     1.624093    0.298281   -0.295776   -0.018319   -0.054066   -0.719066
C     1.416821   -1.018071    0.021689   -0.001677   -0.004232   -0.059087
N     0.158608   -1.528108    0.367092    0.020284    0.059618    0.792589
C    -1.012421   -0.776751    0.104458    0.001602    0.004482    0.062676
N    -0.757748    0.579252   -0.017376    0.000651    0.001421    0.021179
C     0.490116    1.233695   -0.127479   -0.001693   -0.005132   -0.068040
O    -2.124128   -1.274436    0.004352   -0.011653   -0.033815   -0.451057
O     0.550866    2.452941   -0.079916    0.009447    0.027826    0.369112
H     2.233426   -1.744697    0.026021   -0.003897   -0.011061   -0.151192
H     0.011520   -2.527013    0.462999    0.021975    0.063589    0.846257
H    -1.580262    1.176820   -0.064091   -0.001161   -0.003896   -0.048687
H     2.620775    0.706771   -0.544924   -0.033460   -0.099349   -1.317596
12
* Frequency(7)  173.0789
C     1.625248    0.301688   -0.250463   -0.018319   -0.054066   -0.719066
C     1.416927   -1.017804    0.025412   -0.001677   -0.004232   -0.059087
N     0.157329   -1.531865    0.317146    0.020284    0.059618    0.792589
C    -1.012522   -0.777034    0.100509    0.001602    0.004482    0.062676
N    -0.757789    0.579163   -0.018711    0.000651    0.001421    0.021179
C     0.490223    1.234018   -0.123191   -0.001693   -0.005132   -0.068040
O    -2.123393   -1.272305    0.032776   -0.011653   -0.033815   -0.451057
O     0.550271    2.451187   -0.103176    0.009447    0.027826    0.369112
H     2.233671   -1.744000    0.035549   -0.003897   -0.011061   -0.151192
H     0.010135   -2.531020    0.409670    0.021975    0.063589    0.846257
H    -1.580189    1.177065   -0.061023   -0.001161   -0.003896   -0.048687
H     2.622883    0.713031   -0.461893   -0.033460   -0.099349   -1.317596
12
* Frequency(7)  173.0789
C     1.626913    0.306604   -0.185084   -0.018319   -0.054066   -0.719066
C     1.417080   -1.017419    0.030784   -0.001677   -0.004232   -0.059087
N     0.155485   -1.537286    0.245082    0.020284    0.059618    0.792589
C    -1.012667   -0.777441    0.094810    0.001602    0.004482    0.062676
N    -0.757848    0.579034   -0.020637    0.000651    0.001421    0.021179
C     0.490377    1.234485   -0.117005   -0.001693   -0.005132   -0.068040
O    -2.122334   -1.269231    0.073787   -0.011653   -0.033815   -0.451057
O     0.549412    2.448657   -0.136736    0.009447    0.027826    0.369112
H     2.234026   -1.742994    0.049296   -0.003897   -0.011061   -0.151192
H     0.008137   -2.536801    0.332727    0.021975    0.063589    0.846257
H    -1.580083    1.177420   -0.056596   -0.001161   -0.003896   -0.048687
H     2.625925    0.722064   -0.342094   -0.033460   -0.099349   -1.317596
12
* Frequency(7)  173.0789
C     1.628910    0.312495   -0.106725   -0.018319   -0.054066   -0.719066
C     1.417262   -1.016958    0.037223   -0.001677   -0.004232   -0.059087
N     0.153275   -1.543782    0.158711    0.020284    0.059618    0.792589
C    -1.012842   -0.777930    0.087980    0.001602    0.004482    0.062676
N    -0.757919    0.578879   -0.022945    0.000651    0.001421    0.021179
C     0.490561    1.235044   -0.109590   -0.001693   -0.005132   -0.068040
O    -2.121064   -1.265546    0.122940   -0.011653   -0.033815   -0.451057
O     0.548383    2.445625   -0.176960    0.009447    0.027826    0.369112
H     2.234450   -1.741789    0.065772   -0.003897   -0.011061   -0.151192
H     0.005742   -2.543731    0.240507    0.021975    0.063589    0.846257
H    -1.579957    1.177844   -0.051290   -0.001161   -0.003896   -0.048687
H     2.629572    0.732891   -0.198511   -0.033460   -0.099349   -1.317596
12
* Frequency(7)  173.0789
C     1.631020    0.318725   -0.023877   -0.018319   -0.054066   -0.719066
C     1.417456   -1.016470    0.044031   -0.001677   -0.004232   -0.059087
N     0.150938   -1.550651    0.067392    0.020284    0.059618    0.792589
C    -1.013026   -0.778446    0.080759    0.001602    0.004482    0.062676
N    -0.757994    0.578715   -0.025385    0.000651    0.001421    0.021179
C     0.490756    1.235636   -0.101751   -0.001693   -0.005132   -0.068040
O    -2.119721   -1.261650    0.174909   -0.011653   -0.033815   -0.451057
O     0.547294    2.442419   -0.219487    0.009447    0.027826    0.369112
H     2.234899   -1.740514    0.083191   -0.003897   -0.011061   -0.151192
H     0.003210   -2.551058    0.143004    0.021975    0.063589    0.846257
H    -1.579823    1.178293   -0.045681   -0.001161   -0.003896   -0.048687
H     2.633427    0.744338   -0.046703   -0.033460   -0.099349   -1.317596
12
* Frequency(7)  173.0789
C     1.633017    0.324616    0.054482   -0.018319   -0.054066   -0.719066
C     1.417638   -1.016009    0.050470   -0.001677   -0.004232   -0.059087
N     0.148727   -1.557148   -0.018979    0.020284    0.059618    0.792589
C    -1.013201   -0.778934    0.073929    0.001602    0.004482    0.062676
N    -0.758065    0.578560   -0.027693    0.000651    0.001421    0.021179
C     0.490941    1.236195   -0.094337   -0.001693   -0.005132   -0.068040
O    -2.118452   -1.257965    0.224063   -0.011653   -0.033815   -0.451057
O     0.546265    2.439387   -0.259711    0.009447    0.027826    0.369112
H     2.235324   -1.739309    0.099667   -0.003897   -0.011061   -0.151192
H     0.000816   -2.557987    0.050785    0.021975    0.063589    0.846257
H    -1.579696    1.178718   -0.040375   -0.001161   -0.003896   -0.048687
H     2.637073    0.755164    0.096880   -0.033460   -0.099349   -1.317596
12
* Frequency(7)  173.0789
C     1.634682    0.329532    0.119861   -0.018319   -0.054066   -0.719066
C     1.417791   -1.015624    0.055842   -0.001677   -0.004232   -0.059087
N     0.146883   -1.562569   -0.091043    0.020284    0.059618    0.792589
C    -1.013347   -0.779342    0.068230    0.001602    0.004482    0.062676
N    -0.758124    0.578431   -0.029618    0.000651    0.001421    0.021179
C     0.491095    1.236661   -0.088150   -0.001693   -0.005132   -0.068040
O    -2.117392   -1.254890    0.265074   -0.011653   -0.033815   -0.451057
O     0.545406    2.436857   -0.293271    0.009447    0.027826    0.369112
H     2.235678   -1.738304    0.113414   -0.003897   -0.011061   -0.151192
H    -0.001182   -2.563769   -0.026158    0.021975    0.063589    0.846257
H    -1.579591    1.179072   -0.035948   -0.001161   -0.003896   -0.048687
H     2.640115    0.764197    0.216678   -0.033460   -0.099349   -1.317596
12
* Frequency(7)  173.0789
C     1.635836    0.332939    0.165174   -0.018319   -0.054066   -0.719066
C     1.417897   -1.015358    0.059566   -0.001677   -0.004232   -0.059087
N     0.145605   -1.566326   -0.140990    0.020284    0.059618    0.792589
C    -1.013448   -0.779624    0.064280    0.001602    0.004482    0.062676
N    -0.758165    0.578341   -0.030953    0.000651    0.001421    0.021179
C     0.491201    1.236985   -0.083863   -0.001693   -0.005132   -0.068040
O    -2.116658   -1.252759    0.293498   -0.011653   -0.033815   -0.451057
O     0.544811    2.435103   -0.316532    0.009447    0.027826    0.369112
H     2.235924   -1.737607    0.122942   -0.003897   -0.011061   -0.151192
H    -0.002567   -2.567776   -0.079487    0.021975    0.063589    0.846257
H    -1.579517    1.179317   -0.032880   -0.001161   -0.003896   -0.048687
H     2.642224    0.770458    0.299710   -0.033460   -0.099349   -1.317596
12
* Frequency(7)  173.0789
C     1.636355    0.334468    0.185512   -0.018319   -0.054066   -0.719066
C     1.417944   -1.015238    0.061237   -0.001677   -0.004232   -0.059087
N     0.145031   -1.568012   -0.163407    0.020284    0.059618    0.792589
C    -1.013493   -0.779751    0.062508    0.001602    0.004482    0.062676
N    -0.758184    0.578301   -0.031552    0.000651    0.001421    0.021179
C     0.491249    1.237130   -0.081938   -0.001693   -0.005132   -0.068040
O    -2.116328   -1.251803    0.306256   -0.011653   -0.033815   -0.451057
O     0.544543    2.434316   -0.326972    0.009447    0.027826    0.369112
H     2.236034   -1.737294    0.127218   -0.003897   -0.011061   -0.151192
H    -0.003189   -2.569575   -0.103423    0.021975    0.063589    0.846257
H    -1.579485    1.179427   -0.031503   -0.001161   -0.003896   -0.048687
H     2.643170    0.773268    0.336976   -0.033460   -0.099349   -1.317596
12
* Frequency(7)  173.0789
C     1.636180    0.333954    0.178671   -0.018319   -0.054066   -0.719066
C     1.417928   -1.015278    0.060675   -0.001677   -0.004232   -0.059087
N     0.145224   -1.567445   -0.155866    0.020284    0.059618    0.792589
C    -1.013478   -0.779709    0.063104    0.001602    0.004482    0.062676
N    -0.758178    0.578315   -0.031351    0.000651    0.001421    0.021179
C     0.491233    1.237081   -0.082585   -0.001693   -0.005132   -0.068040
O    -2.116439   -1.252125    0.301964   -0.011653   -0.033815   -0.451057
O     0.544633    2.434581   -0.323460    0.009447    0.027826    0.369112
H     2.235997   -1.737399    0.125779   -0.003897   -0.011061   -0.151192
H    -0.002979   -2.568970   -0.095371    0.021975    0.063589    0.846257
H    -1.579496    1.179390   -0.031966   -0.001161   -0.003896   -0.048687
H     2.642852    0.772322    0.324440   -0.033460   -0.099349   -1.317596
12
* Frequency(7)  173.0789
C     1.635332    0.331452    0.145391   -0.018319   -0.054066   -0.719066
C     1.417850   -1.015474    0.057940   -0.001677   -0.004232   -0.059087
N     0.146163   -1.564685   -0.119184    0.020284    0.059618    0.792589
C    -1.013403   -0.779501    0.066005    0.001602    0.004482    0.062676
N    -0.758147    0.578381   -0.030370    0.000651    0.001421    0.021179
C     0.491155    1.236844   -0.085734   -0.001693   -0.005132   -0.068040
O    -2.116978   -1.253690    0.281088   -0.011653   -0.033815   -0.451057
O     0.545070    2.435869   -0.306377    0.009447    0.027826    0.369112
H     2.235817   -1.737911    0.118782   -0.003897   -0.011061   -0.151192
H    -0.001962   -2.566027   -0.056205    0.021975    0.063589    0.846257
H    -1.579549    1.179210   -0.034220   -0.001161   -0.003896   -0.048687
H     2.641303    0.767724    0.263459   -0.033460   -0.099349   -1.317596
12
* Frequency(7)  173.0789
C     1.633903    0.327233    0.089280   -0.018319   -0.054066   -0.719066
C     1.417720   -1.015804    0.053329   -0.001677   -0.004232   -0.059087
N     0.147746   -1.560033   -0.057335    0.020284    0.059618    0.792589
C    -1.013279   -0.779151    0.070896    0.001602    0.004482    0.062676
N    -0.758097    0.578491   -0.028718    0.000651    0.001421    0.021179
C     0.491023    1.236443   -0.091044   -0.001693   -0.005132   -0.068040
O    -2.117888   -1.256328    0.245891   -0.011653   -0.033815   -0.451057
O     0.545808    2.438040   -0.277573    0.009447    0.027826    0.369112
H     2.235513   -1.738774    0.106984   -0.003897   -0.011061   -0.151192
H    -0.000248   -2.561064    0.009832    0.021975    0.063589    0.846257
H    -1.579640    1.178906   -0.038019   -0.001161   -0.003896   -0.048687
H     2.638692    0.759972    0.160642   -0.033460   -0.099349   -1.317596
12
* Frequency(7)  173.0789
C     1.632047    0.321754    0.016417   -0.018319   -0.054066   -0.719066
C     1.417550   -1.016233    0.047342   -0.001677   -0.004232   -0.059087
N     0.149801   -1.553992    0.022978    0.020284    0.059618    0.792589
C    -1.013116   -0.778697    0.077247    0.001602    0.004482    0.062676
N    -0.758031    0.578635   -0.026572    0.000651    0.001421    0.021179
C     0.490851    1.235923   -0.097938   -0.001693   -0.005132   -0.068040
O    -2.119068   -1.259755    0.200185   -0.011653   -0.033815   -0.451057
O     0.546765    2.440860   -0.240171    0.009447    0.027826    0.369112
H     2.235118   -1.739895    0.091664   -0.003897   -0.011061   -0.151192
H     0.001979   -2.554621    0.095583    0.021975    0.063589    0.846257
H    -1.579758    1.178511   -0.042952   -0.001161   -0.003896   -0.048687
H     2.635302    0.749905    0.027131   -0.033460   -0.099349   -1.317596
12
* Frequency(7)  173.0789
C     1.629965    0.315610   -0.065301   -0.018319   -0.054066   -0.719066
C     1.417359   -1.016714    0.040627   -0.001677   -0.004232   -0.059087
N     0.152106   -1.547217    0.113051    0.020284    0.059618    0.792589
C    -1.012934   -0.778188    0.084369    0.001602    0.004482    0.062676
N    -0.757957    0.578797   -0.024165    0.000651    0.001421    0.021179
C     0.490659    1.235340   -0.105671   -0.001693   -0.005132   -0.068040
O    -2.120393   -1.263598    0.148925   -0.011653   -0.033815   -0.451057
O     0.547838    2.444022   -0.198224    0.009447    0.027826    0.369112
H     2.234675   -1.741152    0.074482   -0.003897   -0.011061   -0.151192
H     0.004476   -2.547394    0.191756    0.021975    0.063589    0.846257
H    -1.579890    1.178069   -0.048486   -0.001161   -0.003896   -0.048687
H     2.631499    0.738614   -0.122607   -0.033460   -0.099349   -1.317596
