12
* (null), Energy   -1000.0000000
C     1.629965    0.315610   -0.065301    0.000000    0.000000    0.000000
C     1.417359   -1.016714    0.040627    0.000000    0.000000    0.000000
N     0.152106   -1.547217    0.113051    0.000000    0.000000    0.000000
C    -1.012934   -0.778188    0.084369    0.000000    0.000000    0.000000
N    -0.757957    0.578797   -0.024165    0.000000    0.000000    0.000000
C     0.490659    1.235340   -0.105671    0.000000    0.000000    0.000000
O    -2.120393   -1.263598    0.148925    0.000000    0.000000    0.000000
O     0.547838    2.444022   -0.198224    0.000000    0.000000    0.000000
H     2.234675   -1.741152    0.074482    0.000000    0.000000    0.000000
H     0.004476   -2.547394    0.191756    0.000000    0.000000    0.000000
H    -1.579890    1.178069   -0.048486    0.000000    0.000000    0.000000
H     2.631499    0.738614   -0.122607    0.000000    0.000000    0.000000
12
* Frequency(2)    0.0000
C     1.629965    0.315610   -0.065301    0.000000    0.000000    0.000000
C     1.417359   -1.016714    0.040627    0.000000    0.000000    0.000000
N     0.152106   -1.547217    0.113051    0.000000    0.000000    0.000000
C    -1.012934   -0.778188    0.084369    0.000000    0.000000    0.000000
N    -0.757957    0.578797   -0.024165    0.000000    0.000000    0.000000
C     0.490659    1.235340   -0.105671    0.000000    0.000000    0.000000
O    -2.120393   -1.263598    0.148925    0.000000    0.000000    0.000000
O     0.547838    2.444022   -0.198224    0.000000    0.000000    0.000000
H     2.234675   -1.741152    0.074482    0.000000    0.000000    0.000000
H     0.004476   -2.547394    0.191756    0.000000    0.000000    0.000000
H    -1.579890    1.178069   -0.048486    0.000000    0.000000    0.000000
H     2.631499    0.738614   -0.122607    0.000000    0.000000    0.000000
12
* Frequency(2)    0.0000
C     1.629965    0.315610   -0.065301    0.000000    0.000000    0.000000
C     1.417359   -1.016714    0.040627    0.000000    0.000000    0.000000
N     0.152106   -1.547217    0.113051    0.000000    0.000000    0.000000
C    -1.012934   -0.778188    0.084369    0.000000    0.000000    0.000000
N    -0.757957    0.578797   -0.024165    0.000000    0.000000    0.000000
C     0.490659    1.235340   -0.105671    0.000000    0.000000    0.000000
O    -2.120393   -1.263598    0.148925    0.000000    0.000000    0.000000
O     0.547838    2.444022   -0.198224    0.000000    0.000000    0.000000
H     2.234675   -1.741152    0.074482    0.000000    0.000000    0.000000
H     0.004476   -2.547394    0.191756    0.000000    0.000000    0.000000
H    -1.579890    1.178069   -0.048486    0.000000    0.000000    0.000000
H     2.631499    0.738614   -0.122607    0.000000    0.000000    0.000000
12
* Frequency(2)    0.0000
C     1.629965    0.315610   -0.065301    0.000000    0.000000    0.000000
C     1.417359   -1.016714    0.040627    0.000000    0.000000    0.000000
N     0.152106   -1.547217    0.113051    0.000000    0.000000    0.000000
C    -1.012934   -0.778188    0.084369    0.000000    0.000000    0.000000
N    -0.757957    0.578797   -0.024165    0.000000    0.000000    0.000000
C     0.490659    1.235340   -0.105671    0.000000    0.000000    0.000000
O    -2.120393   -1.263598    0.148925    0.000000    0.000000    0.000000
O     0.547838    2.444022   -0.198224    0.000000    0.000000    0.000000
H     2.234675   -1.741152    0.074482    0.000000    0.000000    0.000000
H     0.004476   -2.547394    0.191756    0.000000    0.000000    0.000000
H    -1.579890    1.178069   -0.048486    0.000000    0.000000    0.000000
H     2.631499    0.738614   -0.122607    0.000000    0.000000    0.000000
12
* Frequency(2)    0.0000
C     1.629965    0.315610   -0.065301    0.000000    0.000000    0.000000
C     1.417359   -1.016714    0.040627    0.000000    0.000000    0.000000
N     0.152106   -1.547217    0.113051    0.000000    0.000000    0.000000
C    -1.012934   -0.778188    0.084369    0.000000    0.000000    0.000000
N    -0.757957    0.578797   -0.024165    0.000000    0.000000    0.000000
C     0.490659    1.235340   -0.105671    0.000000    0.000000    0.000000
O    -2.120393   -1.263598    0.148925    0.000000    0.000000    0.000000
O     0.547838    2.444022   -0.198224    0.000000    0.000000    0.000000
H     2.234675   -1.741152    0.074482    0.000000    0.000000    0.000000
H     0.004476   -2.547394    0.191756    0.000000    0.000000    0.000000
H    -1.579890    1.178069   -0.048486    0.000000    0.000000    0.000000
H     2.631499    0.738614   -0.122607    0.000000    0.000000    0.000000
12
* Frequency(2)    0.0000
C     1.629965    0.315610   -0.065301    0.000000    0.000000    0.000000
C     1.417359   -1.016714    0.040627    0.000000    0.000000    0.000000
N     0.152106   -1.547217    0.113051    0.000000    0.000000    0.000000
C    -1.012934   -0.778188    0.084369    0.000000    0.000000    0.000000
N    -0.757957    0.578797   -0.024165    0.000000    0.000000    0.000000
C     0.490659    1.235340   -0.105671    0.000000    0.000000    0.000000
O    -2.120393   -1.263598    0.148925    0.000000    0.000000    0.000000
O     0.547838    2.444022   -0.198224    0.000000    0.000000    0.000000
H     2.234675   -1.741152    0.074482    0.000000    0.000000    0.000000
H     0.004476   -2.547394    0.191756    0.000000    0.000000    0.000000
H    -1.579890    1.178069   -0.048486    0.000000    0.000000    0.000000
H     2.631499    0.738614   -0.122607    0.000000    0.000000    0.000000
12
* Frequency(2)    0.0000
C     1.629965    0.315610   -0.065301    0.000000    0.000000    0.000000
C     1.417359   -1.016714    0.040627    0.000000    0.000000    0.000000
N     0.152106   -1.547217    0.113051    0.000000    0.000000    0.000000
C    -1.012934   -0.778188    0.084369    0.000000    0.000000    0.000000
N    -0.757957    0.578797   -0.024165    0.000000    0.000000    0.000000
C     0.490659    1.235340   -0.105671    0.000000    0.000000    0.000000
O    -2.120393   -1.263598    0.148925    0.000000    0.000000    0.000000
O     0.547838    2.444022   -0.198224    0.000000    0.000000    0.000000
H     2.234675   -1.741152    0.074482    0.000000    0.000000    0.000000
H     0.004476   -2.547394    0.191756    0.000000    0.000000    0.000000
H    -1.579890    1.178069   -0.048486    0.000000    0.000000    0.000000
H     2.631499    0.738614   -0.122607    0.000000    0.000000    0.000000
12
* Frequency(2)    0.0000
C     1.629965    0.315610   -0.065301    0.000000    0.000000    0.000000
C     1.417359   -1.016714    0.040627    0.000000    0.000000    0.000000
N     0.152106   -1.547217    0.113051    0.000000    0.000000    0.000000
C    -1.012934   -0.778188    0.084369    0.000000    0.000000    0.000000
N    -0.757957    0.578797   -0.024165    0.000000    0.000000    0.000000
C     0.490659    1.235340   -0.105671    0.000000    0.000000    0.000000
O    -2.120393   -1.263598    0.148925    0.000000    0.000000    0.000000
O     0.547838    2.444022   -0.198224    0.000000    0.000000    0.000000
H     2.234675   -1.741152    0.074482    0.000000    0.000000    0.000000
H     0.004476   -2.547394    0.191756    0.000000    0.000000    0.000000
H    -1.579890    1.178069   -0.048486    0.000000    0.000000    0.000000
H     2.631499    0.738614   -0.122607    0.000000    0.000000    0.000000
12
* Frequency(2)    0.0000
C     1.629965    0.315610   -0.065301    0.000000    0.000000    0.000000
C     1.417359   -1.016714    0.040627    0.000000    0.000000    0.000000
N     0.152106   -1.547217    0.113051    0.000000    0.000000    0.000000
C    -1.012934   -0.778188    0.084369    0.000000    0.000000    0.000000
N    -0.757957    0.578797   -0.024165    0.000000    0.000000    0.000000
C     0.490659    1.235340   -0.105671    0.000000    0.000000    0.000000
O    -2.120393   -1.263598    0.148925    0.000000    0.000000    0.000000
O     0.547838    2.444022   -0.198224    0.000000    0.000000    0.000000
H     2.234675   -1.741152    0.074482    0.000000    0.000000    0.000000
H     0.004476   -2.547394    0.191756    0.000000    0.000000    0.000000
H    -1.579890    1.178069   -0.048486    0.000000    0.000000    0.000000
H     2.631499    0.738614   -0.122607    0.000000    0.000000    0.000000
12
* Frequency(2)    0.0000
C     1.629965    0.315610   -0.065301    0.000000    0.000000    0.000000
C     1.417359   -1.016714    0.040627    0.000000    0.000000    0.000000
N     0.152106   -1.547217    0.113051    0.000000    0.000000    0.000000
C    -1.012934   -0.778188    0.084369    0.000000    0.000000    0.000000
N    -0.757957    0.578797   -0.024165    0.000000    0.000000    0.000000
C     0.490659    1.235340   -0.105671    0.000000    0.000000    0.000000
O    -2.120393   -1.263598    0.148925    0.000000    0.000000    0.000000
O     0.547838    2.444022   -0.198224    0.000000    0.000000    0.000000
H     2.234675   -1.741152    0.074482    0.000000    0.000000    0.000000
H     0.004476   -2.547394    0.191756    0.000000    0.000000    0.000000
H    -1.579890    1.178069   -0.048486    0.000000    0.000000    0.000000
H     2.631499    0.738614   -0.122607    0.000000    0.000000    0.000000
12
* Frequency(2)    0.0000
C     1.629965    0.315610   -0.065301    0.000000    0.000000    0.000000
C     1.417359   -1.016714    0.040627    0.000000    0.000000    0.000000
N     0.152106   -1.547217    0.113051    0.000000    0.000000    0.000000
C    -1.012934   -0.778188    0.084369    0.000000    0.000000    0.000000
N    -0.757957    0.578797   -0.024165    0.000000    0.000000    0.000000
C     0.490659    1.235340   -0.105671    0.000000    0.000000    0.000000
O    -2.120393   -1.263598    0.148925    0.000000    0.000000    0.000000
O     0.547838    2.444022   -0.198224    0.000000    0.000000    0.000000
H     2.234675   -1.741152    0.074482    0.000000    0.000000    0.000000
H     0.004476   -2.547394    0.191756    0.000000    0.000000    0.000000
H    -1.579890    1.178069   -0.048486    0.000000    0.000000    0.000000
H     2.631499    0.738614   -0.122607    0.000000    0.000000    0.000000
12
* Frequency(2)    0.0000
C     1.629965    0.315610   -0.065301    0.000000    0.000000    0.000000
C     1.417359   -1.016714    0.040627    0.000000    0.000000    0.000000
N     0.152106   -1.547217    0.113051    0.000000    0.000000    0.000000
C    -1.012934   -0.778188    0.084369    0.000000    0.000000    0.000000
N    -0.757957    0.578797   -0.024165    0.000000    0.000000    0.000000
C     0.490659    1.235340   -0.105671    0.000000    0.000000    0.000000
O    -2.120393   -1.263598    0.148925    0.000000    0.000000    0.000000
O     0.547838    2.444022   -0.198224    0.000000    0.000000    0.000000
H     2.234675   -1.741152    0.074482    0.000000    0.000000    0.000000
H     0.004476   -2.547394    0.191756    0.000000    0.000000    0.000000
H    -1.579890    1.178069   -0.048486    0.000000    0.000000    0.000000
H     2.631499    0.738614   -0.122607    0.000000    0.000000    0.000000
12
* Frequency(2)    0.0000
C     1.629965    0.315610   -0.065301    0.000000    0.000000    0.000000
C     1.417359   -1.016714    0.040627    0.000000    0.000000    0.000000
N     0.152106   -1.547217    0.113051    0.000000    0.000000    0.000000
C    -1.012934   -0.778188    0.084369    0.000000    0.000000    0.000000
N    -0.757957    0.578797   -0.024165    0.000000    0.000000    0.000000
C     0.490659    1.235340   -0.105671    0.000000    0.000000    0.000000
O    -2.120393   -1.263598    0.148925    0.000000    0.000000    0.000000
O     0.547838    2.444022   -0.198224    0.000000    0.000000    0.000000
H     2.234675   -1.741152    0.074482    0.000000    0.000000    0.000000
H     0.004476   -2.547394    0.191756    0.000000    0.000000    0.000000
H    -1.579890    1.178069   -0.048486    0.000000    0.000000    0.000000
H     2.631499    0.738614   -0.122607    0.000000    0.000000    0.000000
12
* Frequency(2)    0.0000
C     1.629965    0.315610   -0.065301    0.000000    0.000000    0.000000
C     1.417359   -1.016714    0.040627    0.000000    0.000000    0.000000
N     0.152106   -1.547217    0.113051    0.000000    0.000000    0.000000
C    -1.012934   -0.778188    0.084369    0.000000    0.000000    0.000000
N    -0.757957    0.578797   -0.024165    0.000000    0.000000    0.000000
C     0.490659    1.235340   -0.105671    0.000000    0.000000    0.000000
O    -2.120393   -1.263598    0.148925    0.000000    0.000000    0.000000
O     0.547838    2.444022   -0.198224    0.000000    0.000000    0.000000
H     2.234675   -1.741152    0.074482    0.000000    0.000000    0.000000
H     0.004476   -2.547394    0.191756    0.000000    0.000000    0.000000
H    -1.579890    1.178069   -0.048486    0.000000    0.000000    0.000000
H     2.631499    0.738614   -0.122607    0.000000    0.000000    0.000000
12
* Frequency(2)    0.0000
C     1.629965    0.315610   -0.065301    0.000000    0.000000    0.000000
C     1.417359   -1.016714    0.040627    0.000000    0.000000    0.000000
N     0.152106   -1.547217    0.113051    0.000000    0.000000    0.000000
C    -1.012934   -0.778188    0.084369    0.000000    0.000000    0.000000
N    -0.757957    0.578797   -0.024165    0.000000    0.000000    0.000000
C     0.490659    1.235340   -0.105671    0.000000    0.000000    0.000000
O    -2.120393   -1.263598    0.148925    0.000000    0.000000    0.000000
O     0.547838    2.444022   -0.198224    0.000000    0.000000    0.000000
H     2.234675   -1.741152    0.074482    0.000000    0.000000    0.000000
H     0.004476   -2.547394    0.191756    0.000000    0.000000    0.000000
H    -1.579890    1.178069   -0.048486    0.000000    0.000000    0.000000
H     2.631499    0.738614   -0.122607    0.000000    0.000000    0.000000
12
* Frequency(2)    0.0000
C     1.629965    0.315610   -0.065301    0.000000    0.000000    0.000000
C     1.417359   -1.016714    0.040627    0.000000    0.000000    0.000000
N     0.152106   -1.547217    0.113051    0.000000    0.000000    0.000000
C    -1.012934   -0.778188    0.084369    0.000000    0.000000    0.000000
N    -0.757957    0.578797   -0.024165    0.000000    0.000000    0.000000
C     0.490659    1.235340   -0.105671    0.000000    0.000000    0.000000
O    -2.120393   -1.263598    0.148925    0.000000    0.000000    0.000000
O     0.547838    2.444022   -0.198224    0.000000    0.000000    0.000000
H     2.234675   -1.741152    0.074482    0.000000    0.000000    0.000000
H     0.004476   -2.547394    0.191756    0.000000    0.000000    0.000000
H    -1.579890    1.178069   -0.048486    0.000000    0.000000    0.000000
H     2.631499    0.738614   -0.122607    0.000000    0.000000    0.000000
12
* Frequency(2)    0.0000
C     1.629965    0.315610   -0.065301    0.000000    0.000000    0.000000
C     1.417359   -1.016714    0.040627    0.000000    0.000000    0.000000
N     0.152106   -1.547217    0.113051    0.000000    0.000000    0.000000
C    -1.012934   -0.778188    0.084369    0.000000    0.000000    0.000000
N    -0.757957    0.578797   -0.024165    0.000000    0.000000    0.000000
C     0.490659    1.235340   -0.105671    0.000000    0.000000    0.000000
O    -2.120393   -1.263598    0.148925    0.000000    0.000000    0.000000
O     0.547838    2.444022   -0.198224    0.000000    0.000000    0.000000
H     2.234675   -1.741152    0.074482    0.000000    0.000000    0.000000
H     0.004476   -2.547394    0.191756    0.000000    0.000000    0.000000
H    -1.579890    1.178069   -0.048486    0.000000    0.000000    0.000000
H     2.631499    0.738614   -0.122607    0.000000    0.000000    0.000000
12
* Frequency(2)    0.0000
C     1.629965    0.315610   -0.065301    0.000000    0.000000    0.000000
C     1.417359   -1.016714    0.040627    0.000000    0.000000    0.000000
N     0.152106   -1.547217    0.113051    0.000000    0.000000    0.000000
C    -1.012934   -0.778188    0.084369    0.000000    0.000000    0.000000
N    -0.757957    0.578797   -0.024165    0.000000    0.000000    0.000000
C     0.490659    1.235340   -0.105671    0.000000    0.000000    0.000000
O    -2.120393   -1.263598    0.148925    0.000000    0.000000    0.000000
O     0.547838    2.444022   -0.198224    0.000000    0.000000    0.000000
H     2.234675   -1.741152    0.074482    0.000000    0.000000    0.000000
H     0.004476   -2.547394    0.191756    0.000000    0.000000    0.000000
H    -1.579890    1.178069   -0.048486    0.000000    0.000000    0.000000
H     2.631499    0.738614   -0.122607    0.000000    0.000000    0.000000
12
* Frequency(2)    0.0000
C     1.629965    0.315610   -0.065301    0.000000    0.000000    0.000000
C     1.417359   -1.016714    0.040627    0.000000    0.000000    0.000000
N     0.152106   -1.547217    0.113051    0.000000    0.000000    0.000000
C    -1.012934   -0.778188    0.084369    0.000000    0.000000    0.000000
N    -0.757957    0.578797   -0.024165    0.000000    0.000000    0.000000
C     0.490659    1.235340   -0.105671    0.000000    0.000000    0.000000
O    -2.120393   -1.263598    0.148925    0.000000    0.000000    0.000000
O     0.547838    2.444022   -0.198224    0.000000    0.000000    0.000000
H     2.234675   -1.741152    0.074482    0.000000    0.000000    0.000000
H     0.004476   -2.547394    0.191756    0.000000    0.000000    0.000000
H    -1.579890    1.178069   -0.048486    0.000000    0.000000    0.000000
H     2.631499    0.738614   -0.122607    0.000000    0.000000    0.000000
12
* Frequency(2)    0.0000
C     1.629965    0.315610   -0.065301    0.000000    0.000000    0.000000
C     1.417359   -1.016714    0.040627    0.000000    0.000000    0.000000
N     0.152106   -1.547217    0.113051    0.000000    0.000000    0.000000
C    -1.012934   -0.778188    0.084369    0.000000    0.000000    0.000000
N    -0.757957    0.578797   -0.024165    0.000000    0.000000    0.000000
C     0.490659    1.235340   -0.105671    0.000000    0.000000    0.000000
O    -2.120393   -1.263598    0.148925    0.000000    0.000000    0.000000
O     0.547838    2.444022   -0.198224    0.000000    0.000000    0.000000
H     2.234675   -1.741152    0.074482    0.000000    0.000000    0.000000
H     0.004476   -2.547394    0.191756    0.000000    0.000000    0.000000
H    -1.579890    1.178069   -0.048486    0.000000    0.000000    0.000000
H     2.631499    0.738614   -0.122607    0.000000    0.000000    0.000000
