12
* (null), Energy   -1000.0000000
C     1.326706    0.515754   -0.072626   -0.000719   -0.002243    0.000181
C     1.114284   -0.816584    0.032594   -0.004203   -0.001041    0.000174
N    -0.151041   -1.347120    0.103530    0.020617    0.146391   -0.012086
C    -1.315628   -0.577682    0.076752    0.001804   -0.000695   -0.000007
N    -1.060936    0.779065   -0.032267    0.001017   -0.001590    0.000094
C     0.187706    1.435734   -0.112929   -0.000744    0.000751   -0.000035
O    -2.423226   -1.063291    0.142349    0.000243    0.000327   -0.000032
O     0.244598    2.644464   -0.204665    0.000098   -0.000497    0.000040
H     1.931646   -1.540867    0.066907    0.013111   -0.009019    0.000398
H    -0.299216   -2.347153    0.186398   -0.264775   -1.970012    0.162757
H    -1.882973    1.378347   -0.056429   -0.010525    0.007259   -0.000270
H     2.328081    0.939334   -0.129643    0.002183    0.000800   -0.000101
12
* Frequency(35) 3630.4336
C     1.326624    0.515499   -0.072605   -0.000719   -0.002243    0.000181
C     1.113806   -0.816702    0.032614   -0.004203   -0.001041    0.000174
N    -0.148698   -1.330483    0.102156    0.020617    0.146391   -0.012086
C    -1.315423   -0.577761    0.076751    0.001804   -0.000695   -0.000007
N    -1.060820    0.778884   -0.032256    0.001017   -0.001590    0.000094
C     0.187621    1.435819   -0.112933   -0.000744    0.000751   -0.000035
O    -2.423198   -1.063254    0.142345    0.000243    0.000327   -0.000032
O     0.244609    2.644408   -0.204661    0.000098   -0.000497    0.000040
H     1.933136   -1.541892    0.066952    0.013111   -0.009019    0.000398
H    -0.329307   -2.571035    0.204894   -0.264775   -1.970012    0.162757
H    -1.884169    1.379172   -0.056459   -0.010525    0.007259   -0.000270
H     2.328329    0.939425   -0.129655    0.002183    0.000800   -0.000101
12
* Frequency(35) 3630.4336
C     1.326551    0.515271   -0.072587   -0.000719   -0.002243    0.000181
C     1.113380   -0.816807    0.032632   -0.004203   -0.001041    0.000174
N    -0.146609   -1.315650    0.100932    0.020617    0.146391   -0.012086
C    -1.315240   -0.577831    0.076750    0.001804   -0.000695   -0.000007
N    -1.060717    0.778723   -0.032247    0.001017   -0.001590    0.000094
C     0.187546    1.435895   -0.112937   -0.000744    0.000751   -0.000035
O    -2.423174   -1.063221    0.142342    0.000243    0.000327   -0.000032
O     0.244619    2.644357   -0.204656    0.000098   -0.000497    0.000040
H     1.934465   -1.542806    0.066993    0.013111   -0.009019    0.000398
H    -0.356136   -2.770656    0.221386   -0.264775   -1.970012    0.162757
H    -1.885236    1.379907   -0.056487   -0.010525    0.007259   -0.000270
H     2.328550    0.939506   -0.129665    0.002183    0.000800   -0.000101
12
* Frequency(35) 3630.4336
C     1.326495    0.515096   -0.072573   -0.000719   -0.002243    0.000181
C     1.113052   -0.816889    0.032645   -0.004203   -0.001041    0.000174
N    -0.145000   -1.304226    0.099989    0.020617    0.146391   -0.012086
C    -1.315100   -0.577885    0.076750    0.001804   -0.000695   -0.000007
N    -1.060638    0.778599   -0.032240    0.001017   -0.001590    0.000094
C     0.187488    1.435954   -0.112940   -0.000744    0.000751   -0.000035
O    -2.423155   -1.063195    0.142339    0.000243    0.000327   -0.000032
O     0.244627    2.644319   -0.204653    0.000098   -0.000497    0.000040
H     1.935488   -1.543510    0.067024    0.013111   -0.009019    0.000398
H    -0.376798   -2.924383    0.234087   -0.264775   -1.970012    0.162757
H    -1.886057    1.380474   -0.056508   -0.010525    0.007259   -0.000270
H     2.328721    0.939568   -0.129673    0.002183    0.000800   -0.000101
12
* Frequency(35) 3630.4336
C     1.326462    0.514993   -0.072564   -0.000719   -0.002243    0.000181
C     1.112858   -0.816937    0.032653   -0.004203   -0.001041    0.000174
N    -0.144046   -1.297451    0.099429    0.020617    0.146391   -0.012086
C    -1.315016   -0.577918    0.076750    0.001804   -0.000695   -0.000007
N    -1.060591    0.778525   -0.032235    0.001017   -0.001590    0.000094
C     0.187454    1.435989   -0.112941   -0.000744    0.000751   -0.000035
O    -2.423144   -1.063180    0.142338    0.000243    0.000327   -0.000032
O     0.244631    2.644296   -0.204652    0.000098   -0.000497    0.000040
H     1.936094   -1.543928    0.067042    0.013111   -0.009019    0.000398
H    -0.389052   -3.015559    0.241620   -0.264775   -1.970012    0.162757
H    -1.886544    1.380810   -0.056520   -0.010525    0.007259   -0.000270
H     2.328822    0.939605   -0.129677    0.002183    0.000800   -0.000101
12
* Frequency(35) 3630.4336
C     1.326455    0.514971   -0.072563   -0.000719   -0.002243    0.000181
C     1.112818   -0.816947    0.032655   -0.004203   -0.001041    0.000174
N    -0.143850   -1.296058    0.099314    0.020617    0.146391   -0.012086
C    -1.314999   -0.577924    0.076750    0.001804   -0.000695   -0.000007
N    -1.060581    0.778510   -0.032234    0.001017   -0.001590    0.000094
C     0.187446    1.435996   -0.112942   -0.000744    0.000751   -0.000035
O    -2.423141   -1.063177    0.142337    0.000243    0.000327   -0.000032
O     0.244632    2.644291   -0.204651    0.000098   -0.000497    0.000040
H     1.936219   -1.544013    0.067046    0.013111   -0.009019    0.000398
H    -0.391571   -3.034302    0.243168   -0.264775   -1.970012    0.162757
H    -1.886644    1.380879   -0.056523   -0.010525    0.007259   -0.000270
H     2.328842    0.939613   -0.129678    0.002183    0.000800   -0.000101
12
* Frequency(35) 3630.4336
C     1.326476    0.515035   -0.072568   -0.000719   -0.002243    0.000181
C     1.112936   -0.816917    0.032650   -0.004203   -0.001041    0.000174
N    -0.144433   -1.300199    0.099656    0.020617    0.146391   -0.012086
C    -1.315050   -0.577904    0.076750    0.001804   -0.000695   -0.000007
N    -1.060610    0.778555   -0.032237    0.001017   -0.001590    0.000094
C     0.187468    1.435975   -0.112941   -0.000744    0.000751   -0.000035
O    -2.423148   -1.063186    0.142338    0.000243    0.000327   -0.000032
O     0.244629    2.644305   -0.204652    0.000098   -0.000497    0.000040
H     1.935848   -1.543758    0.067035    0.013111   -0.009019    0.000398
H    -0.384082   -2.978583    0.238565   -0.264775   -1.970012    0.162757
H    -1.886347    1.380673   -0.056515   -0.010525    0.007259   -0.000270
H     2.328781    0.939590   -0.129676    0.002183    0.000800   -0.000101
12
* Frequency(35) 3630.4336
C     1.326521    0.515176   -0.072579   -0.000719   -0.002243    0.000181
C     1.113201   -0.816852    0.032639   -0.004203   -0.001041    0.000174
N    -0.145732   -1.309424    0.100418    0.020617    0.146391   -0.012086
C    -1.315164   -0.577861    0.076750    0.001804   -0.000695   -0.000007
N    -1.060674    0.778655   -0.032243    0.001017   -0.001590    0.000094
C     0.187514    1.435927   -0.112938   -0.000744    0.000751   -0.000035
O    -2.423164   -1.063207    0.142340    0.000243    0.000327   -0.000032
O     0.244623    2.644336   -0.204655    0.000098   -0.000497    0.000040
H     1.935022   -1.543190    0.067010    0.013111   -0.009019    0.000398
H    -0.367397   -2.854438    0.228308   -0.264775   -1.970012    0.162757
H    -1.885684    1.380216   -0.056498   -0.010525    0.007259   -0.000270
H     2.328643    0.939540   -0.129669    0.002183    0.000800   -0.000101
12
* Frequency(35) 3630.4336
C     1.326586    0.515380   -0.072596   -0.000719   -0.002243    0.000181
C     1.113583   -0.816757    0.032623   -0.004203   -0.001041    0.000174
N    -0.147607   -1.322734    0.101516    0.020617    0.146391   -0.012086
C    -1.315328   -0.577798    0.076751    0.001804   -0.000695   -0.000007
N    -1.060766    0.778800   -0.032251    0.001017   -0.001590    0.000094
C     0.187582    1.435859   -0.112935   -0.000744    0.000751   -0.000035
O    -2.423186   -1.063236    0.142343    0.000243    0.000327   -0.000032
O     0.244614    2.644381   -0.204658    0.000098   -0.000497    0.000040
H     1.933830   -1.542370    0.066974    0.013111   -0.009019    0.000398
H    -0.343323   -2.675321    0.213510   -0.264775   -1.970012    0.162757
H    -1.884727    1.379556   -0.056474   -0.010525    0.007259   -0.000270
H     2.328445    0.939467   -0.129660    0.002183    0.000800   -0.000101
12
* Frequency(35) 3630.4336
C     1.326665    0.515624   -0.072615   -0.000719   -0.002243    0.000181
C     1.114041   -0.816644    0.032604   -0.004203   -0.001041    0.000174
N    -0.149854   -1.338687    0.102834    0.020617    0.146391   -0.012086
C    -1.315524   -0.577722    0.076752    0.001804   -0.000695   -0.000007
N    -1.060877    0.778973   -0.032262    0.001017   -0.001590    0.000094
C     0.187663    1.435777   -0.112931   -0.000744    0.000751   -0.000035
O    -2.423212   -1.063272    0.142347    0.000243    0.000327   -0.000032
O     0.244604    2.644436   -0.204663    0.000098   -0.000497    0.000040
H     1.932401   -1.541387    0.066930    0.013111   -0.009019    0.000398
H    -0.314469   -2.460642    0.195774   -0.264775   -1.970012    0.162757
H    -1.883580    1.378765   -0.056444   -0.010525    0.007259   -0.000270
H     2.328207    0.939380   -0.129649    0.002183    0.000800   -0.000101
12
* Frequency(35) 3630.4336
C     1.326747    0.515883   -0.072636   -0.000719   -0.002243    0.000181
C     1.114526   -0.816524    0.032584   -0.004203   -0.001041    0.000174
N    -0.152229   -1.355553    0.104226    0.020617    0.146391   -0.012086
C    -1.315732   -0.577642    0.076752    0.001804   -0.000695   -0.000007
N    -1.060994    0.779156   -0.032273    0.001017   -0.001590    0.000094
C     0.187749    1.435691   -0.112927   -0.000744    0.000751   -0.000035
O    -2.423240   -1.063310    0.142350    0.000243    0.000327   -0.000032
O     0.244593    2.644493   -0.204667    0.000098   -0.000497    0.000040
H     1.930891   -1.540348    0.066884    0.013111   -0.009019    0.000398
H    -0.283963   -2.233665    0.177022   -0.264775   -1.970012    0.162757
H    -1.882367    1.377929   -0.056413   -0.010525    0.007259   -0.000270
H     2.327955    0.939288   -0.129638    0.002183    0.000800   -0.000101
12
* Frequency(35) 3630.4336
C     1.326826    0.516127   -0.072656   -0.000719   -0.002243    0.000181
C     1.114984   -0.816410    0.032565   -0.004203   -0.001041    0.000174
N    -0.154476   -1.371506    0.105543    0.020617    0.146391   -0.012086
C    -1.315929   -0.577566    0.076753    0.001804   -0.000695   -0.000007
N    -1.061105    0.779329   -0.032283    0.001017   -0.001590    0.000094
C     0.187830    1.435609   -0.112923   -0.000744    0.000751   -0.000035
O    -2.423267   -1.063345    0.142354    0.000243    0.000327   -0.000032
O     0.244582    2.644547   -0.204672    0.000098   -0.000497    0.000040
H     1.929462   -1.539365    0.066841    0.013111   -0.009019    0.000398
H    -0.255110   -2.018986    0.159285   -0.264775   -1.970012    0.162757
H    -1.881220    1.377138   -0.056384   -0.010525    0.007259   -0.000270
H     2.327717    0.939201   -0.129627    0.002183    0.000800   -0.000101
12
* Frequency(35) 3630.4336
C     1.326891    0.516331   -0.072672   -0.000719   -0.002243    0.000181
C     1.115366   -0.816316    0.032549   -0.004203   -0.001041    0.000174
N    -0.156350   -1.384816    0.106642    0.020617    0.146391   -0.012086
C    -1.316093   -0.577503    0.076754    0.001804   -0.000695   -0.000007
N    -1.061198    0.779474   -0.032291    0.001017   -0.001590    0.000094
C     0.187898    1.435541   -0.112920   -0.000744    0.000751   -0.000035
O    -2.423289   -1.063375    0.142357    0.000243    0.000327   -0.000032
O     0.244573    2.644592   -0.204675    0.000098   -0.000497    0.000040
H     1.928270   -1.538545    0.066805    0.013111   -0.009019    0.000398
H    -0.231036   -1.839869    0.144487   -0.264775   -1.970012    0.162757
H    -1.880263    1.376478   -0.056359   -0.010525    0.007259   -0.000270
H     2.327519    0.939128   -0.129617    0.002183    0.000800   -0.000101
12
* Frequency(35) 3630.4336
C     1.326936    0.516473   -0.072684   -0.000719   -0.002243    0.000181
C     1.115631   -0.816250    0.032539   -0.004203   -0.001041    0.000174
N    -0.157649   -1.394041    0.107403    0.020617    0.146391   -0.012086
C    -1.316206   -0.577459    0.076754    0.001804   -0.000695   -0.000007
N    -1.061262    0.779574   -0.032297    0.001017   -0.001590    0.000094
C     0.187945    1.435493   -0.112918   -0.000744    0.000751   -0.000035
O    -2.423304   -1.063396    0.142359    0.000243    0.000327   -0.000032
O     0.244567    2.644624   -0.204678    0.000098   -0.000497    0.000040
H     1.927444   -1.537977    0.066780    0.013111   -0.009019    0.000398
H    -0.214350   -1.715724    0.134231   -0.264775   -1.970012    0.162757
H    -1.879600    1.376020   -0.056342   -0.010525    0.007259   -0.000270
H     2.327381    0.939078   -0.129611    0.002183    0.000800   -0.000101
12
* Frequency(35) 3630.4336
C     1.326957    0.516536   -0.072689   -0.000719   -0.002243    0.000181
C     1.115749   -0.816221    0.032534   -0.004203   -0.001041    0.000174
N    -0.158233   -1.398182    0.107745    0.020617    0.146391   -0.012086
C    -1.316257   -0.577440    0.076754    0.001804   -0.000695   -0.000007
N    -1.061290    0.779619   -0.032300    0.001017   -0.001590    0.000094
C     0.187966    1.435472   -0.112917   -0.000744    0.000751   -0.000035
O    -2.423311   -1.063405    0.142360    0.000243    0.000327   -0.000032
O     0.244564    2.644638   -0.204679    0.000098   -0.000497    0.000040
H     1.927073   -1.537721    0.066768    0.013111   -0.009019    0.000398
H    -0.206861   -1.660004    0.129627   -0.264775   -1.970012    0.162757
H    -1.879302    1.375815   -0.056335   -0.010525    0.007259   -0.000270
H     2.327319    0.939055   -0.129608    0.002183    0.000800   -0.000101
12
* Frequency(35) 3630.4336
C     1.326950    0.516515   -0.072687   -0.000719   -0.002243    0.000181
C     1.115709   -0.816230    0.032535   -0.004203   -0.001041    0.000174
N    -0.158036   -1.396789    0.107630    0.020617    0.146391   -0.012086
C    -1.316240   -0.577446    0.076754    0.001804   -0.000695   -0.000007
N    -1.061281    0.779604   -0.032299    0.001017   -0.001590    0.000094
C     0.187959    1.435479   -0.112917   -0.000744    0.000751   -0.000035
O    -2.423308   -1.063402    0.142359    0.000243    0.000327   -0.000032
O     0.244565    2.644633   -0.204679    0.000098   -0.000497    0.000040
H     1.927198   -1.537807    0.066772    0.013111   -0.009019    0.000398
H    -0.209381   -1.678748    0.131176   -0.264775   -1.970012    0.162757
H    -1.879402    1.375884   -0.056337   -0.010525    0.007259   -0.000270
H     2.327340    0.939063   -0.129609    0.002183    0.000800   -0.000101
12
* Frequency(35) 3630.4336
C     1.326917    0.516411   -0.072679   -0.000719   -0.002243    0.000181
C     1.115515   -0.816279    0.032543   -0.004203   -0.001041    0.000174
N    -0.157082   -1.390014    0.107071    0.020617    0.146391   -0.012086
C    -1.316157   -0.577478    0.076754    0.001804   -0.000695   -0.000007
N    -1.061234    0.779530   -0.032295    0.001017   -0.001590    0.000094
C     0.187924    1.435514   -0.112919   -0.000744    0.000751   -0.000035
O    -2.423297   -1.063387    0.142358    0.000243    0.000327   -0.000032
O     0.244570    2.644610   -0.204677    0.000098   -0.000497    0.000040
H     1.927804   -1.538225    0.066791    0.013111   -0.009019    0.000398
H    -0.221635   -1.769924    0.138708   -0.264775   -1.970012    0.162757
H    -1.879889    1.376220   -0.056350   -0.010525    0.007259   -0.000270
H     2.327441    0.939100   -0.129614    0.002183    0.000800   -0.000101
12
* Frequency(35) 3630.4336
C     1.326860    0.516236   -0.072665   -0.000719   -0.002243    0.000181
C     1.115187   -0.816360    0.032557   -0.004203   -0.001041    0.000174
N    -0.155473   -1.378590    0.106128    0.020617    0.146391   -0.012086
C    -1.316016   -0.577533    0.076753    0.001804   -0.000695   -0.000007
N    -1.061154    0.779406   -0.032287    0.001017   -0.001590    0.000094
C     0.187866    1.435573   -0.112922   -0.000744    0.000751   -0.000035
O    -2.423278   -1.063361    0.142355    0.000243    0.000327   -0.000032
O     0.244577    2.644571   -0.204674    0.000098   -0.000497    0.000040
H     1.928828   -1.538928    0.066822    0.013111   -0.009019    0.000398
H    -0.242296   -1.923651    0.151409   -0.264775   -1.970012    0.162757
H    -1.880710    1.376786   -0.056371   -0.010525    0.007259   -0.000270
H     2.327611    0.939162   -0.129622    0.002183    0.000800   -0.000101
12
* Frequency(35) 3630.4336
C     1.326788    0.516008   -0.072646   -0.000719   -0.002243    0.000181
C     1.114761   -0.816465    0.032575   -0.004203   -0.001041    0.000174
N    -0.153384   -1.363757    0.104903    0.020617    0.146391   -0.012086
C    -1.315833   -0.577603    0.076753    0.001804   -0.000695   -0.000007
N    -1.061051    0.779245   -0.032278    0.001017   -0.001590    0.000094
C     0.187791    1.435649   -0.112925   -0.000744    0.000751   -0.000035
O    -2.423254   -1.063328    0.142352    0.000243    0.000327   -0.000032
O     0.244587    2.644521   -0.204670    0.000098   -0.000497    0.000040
H     1.930156   -1.539842    0.066862    0.013111   -0.009019    0.000398
H    -0.269126   -2.123272    0.167901   -0.264775   -1.970012    0.162757
H    -1.881777    1.377522   -0.056398   -0.010525    0.007259   -0.000270
H     2.327833    0.939243   -0.129632    0.002183    0.000800   -0.000101
12
* Frequency(35) 3630.4336
C     1.326706    0.515754   -0.072626   -0.000719   -0.002243    0.000181
C     1.114284   -0.816584    0.032594   -0.004203   -0.001041    0.000174
N    -0.151041   -1.347120    0.103530    0.020617    0.146391   -0.012086
C    -1.315628   -0.577682    0.076752    0.001804   -0.000695   -0.000007
N    -1.060936    0.779065   -0.032267    0.001017   -0.001590    0.000094
C     0.187706    1.435734   -0.112929   -0.000744    0.000751   -0.000035
O    -2.423226   -1.063291    0.142349    0.000243    0.000327   -0.000032
O     0.244598    2.644464   -0.204665    0.000098   -0.000497    0.000040
H     1.931646   -1.540867    0.066907    0.013111   -0.009019    0.000398
H    -0.299216   -2.347153    0.186398   -0.264775   -1.970012    0.162757
H    -1.882973    1.378347   -0.056429   -0.010525    0.007259   -0.000270
H     2.328081    0.939334   -0.129643    0.002183    0.000800   -0.000101
