12
* (null), Energy   -1000.0000000
C     1.326706    0.515754   -0.072626   -0.361321    0.048636    0.005774
C     1.114284   -0.816584    0.032594    0.124421   -0.012435   -0.002682
N    -0.151041   -1.347120    0.103530    0.123768   -0.200832    0.011858
C    -1.315628   -0.577682    0.076752   -0.191499    0.119977   -0.004147
N    -1.060936    0.779065   -0.032267    0.274910    0.269788   -0.027452
C     0.187706    1.435734   -0.112929    0.119698   -0.099179    0.004804
O    -2.423226   -1.063291    0.142349   -0.131049   -0.131918    0.013524
O     0.244598    2.644464   -0.204665   -0.058574   -0.095512    0.008547
H     1.931646   -1.540867    0.066907    0.637902    0.560078   -0.053625
H    -0.299216   -2.347153    0.186398    0.154455   -0.216844    0.009822
H    -1.882973    1.378347   -0.056429    0.919355    1.151328   -0.109670
H     2.328081    0.939334   -0.129643   -0.563596    0.477839   -0.024839
12
* Frequency(19)  970.5115
C     1.285644    0.521281   -0.071970   -0.361321    0.048636    0.005774
C     1.128423   -0.817997    0.032290    0.124421   -0.012435   -0.002682
N    -0.136976   -1.369943    0.104877    0.123768   -0.200832    0.011858
C    -1.337391   -0.564047    0.076281   -0.191499    0.119977   -0.004147
N    -1.029694    0.809725   -0.035387    0.274910    0.269788   -0.027452
C     0.201309    1.424463   -0.112383    0.119698   -0.099179    0.004804
O    -2.438119   -1.078283    0.143885   -0.131049   -0.131918    0.013524
O     0.237942    2.633610   -0.203694   -0.058574   -0.095512    0.008547
H     2.004140   -1.477217    0.060813    0.637902    0.560078   -0.053625
H    -0.281663   -2.371797    0.187514    0.154455   -0.216844    0.009822
H    -1.778493    1.509189   -0.068892    0.919355    1.151328   -0.109670
H     2.264031    0.993638   -0.132466   -0.563596    0.477839   -0.024839
12
* Frequency(19)  970.5115
C     1.249031    0.526209   -0.071385   -0.361321    0.048636    0.005774
C     1.141031   -0.819257    0.032018    0.124421   -0.012435   -0.002682
N    -0.124434   -1.390294    0.106079    0.123768   -0.200832    0.011858
C    -1.356795   -0.551890    0.075860   -0.191499    0.119977   -0.004147
N    -1.001837    0.837062   -0.038169    0.274910    0.269788   -0.027452
C     0.213438    1.414413   -0.111896    0.119698   -0.099179    0.004804
O    -2.451398   -1.091650    0.145256   -0.131049   -0.131918    0.013524
O     0.232006    2.623932   -0.202828   -0.058574   -0.095512    0.008547
H     2.068779   -1.420465    0.055379    0.637902    0.560078   -0.053625
H    -0.266012   -2.393769    0.188509    0.154455   -0.216844    0.009822
H    -1.685335    1.625853   -0.080005    0.919355    1.151328   -0.109670
H     2.206922    1.042057   -0.134983   -0.563596    0.477839   -0.024839
12
* Frequency(19)  970.5115
C     1.220836    0.530004   -0.070934   -0.361321    0.048636    0.005774
C     1.150740   -0.820227    0.031809    0.124421   -0.012435   -0.002682
N    -0.114776   -1.405965    0.107004    0.123768   -0.200832    0.011858
C    -1.371739   -0.542527    0.075537   -0.191499    0.119977   -0.004147
N    -0.980385    0.858115   -0.040311    0.274910    0.269788   -0.027452
C     0.222778    1.406674   -0.111522    0.119698   -0.099179    0.004804
O    -2.461624   -1.101944    0.146311   -0.131049   -0.131918    0.013524
O     0.227435    2.616478   -0.202161   -0.058574   -0.095512    0.008547
H     2.118557   -1.376760    0.051195    0.637902    0.560078   -0.053625
H    -0.253960   -2.410690    0.189276    0.154455   -0.216844    0.009822
H    -1.613594    1.715695   -0.088563    0.919355    1.151328   -0.109670
H     2.162942    1.079345   -0.136921   -0.563596    0.477839   -0.024839
12
* Frequency(19)  970.5115
C     1.204113    0.532255   -0.070667   -0.361321    0.048636    0.005774
C     1.156498   -0.820803    0.031684    0.124421   -0.012435   -0.002682
N    -0.109048   -1.415260    0.107553    0.123768   -0.200832    0.011858
C    -1.380602   -0.536975    0.075345   -0.191499    0.119977   -0.004147
N    -0.967661    0.870601   -0.041581    0.274910    0.269788   -0.027452
C     0.228318    1.402084   -0.111299    0.119698   -0.099179    0.004804
O    -2.467690   -1.108049    0.146937   -0.131049   -0.131918    0.013524
O     0.224725    2.612058   -0.201765   -0.058574   -0.095512    0.008547
H     2.148080   -1.350839    0.048713    0.637902    0.560078   -0.053625
H    -0.246811   -2.420726    0.189730    0.154455   -0.216844    0.009822
H    -1.571045    1.768981   -0.093639    0.919355    1.151328   -0.109670
H     2.136858    1.101460   -0.138071   -0.563596    0.477839   -0.024839
12
* Frequency(19)  970.5115
C     1.200675    0.532718   -0.070612   -0.361321    0.048636    0.005774
C     1.157682   -0.820921    0.031659    0.124421   -0.012435   -0.002682
N    -0.107870   -1.417171    0.107666    0.123768   -0.200832    0.011858
C    -1.382424   -0.535833    0.075305   -0.191499    0.119977   -0.004147
N    -0.965046    0.873168   -0.041843    0.274910    0.269788   -0.027452
C     0.229457    1.401140   -0.111253    0.119698   -0.099179    0.004804
O    -2.468936   -1.109305    0.147066   -0.131049   -0.131918    0.013524
O     0.224167    2.611149   -0.201684   -0.058574   -0.095512    0.008547
H     2.154149   -1.345510    0.048203    0.637902    0.560078   -0.053625
H    -0.245342   -2.422790    0.189824    0.154455   -0.216844    0.009822
H    -1.562298    1.779935   -0.094682    0.919355    1.151328   -0.109670
H     2.131496    1.106006   -0.138307   -0.563596    0.477839   -0.024839
12
* Frequency(19)  970.5115
C     1.210895    0.531342   -0.070775   -0.361321    0.048636    0.005774
C     1.154163   -0.820570    0.031735    0.124421   -0.012435   -0.002682
N    -0.111371   -1.411491    0.107331    0.123768   -0.200832    0.011858
C    -1.377007   -0.539227    0.075423   -0.191499    0.119977   -0.004147
N    -0.972821    0.865537   -0.041066    0.274910    0.269788   -0.027452
C     0.226072    1.403945   -0.111389    0.119698   -0.099179    0.004804
O    -2.465230   -1.105573    0.146683   -0.131049   -0.131918    0.013524
O     0.225824    2.613851   -0.201926   -0.058574   -0.095512    0.008547
H     2.136107   -1.361351    0.049719    0.637902    0.560078   -0.053625
H    -0.249710   -2.416656    0.189546    0.154455   -0.216844    0.009822
H    -1.588301    1.747371   -0.091580    0.919355    1.151328   -0.109670
H     2.147437    1.092491   -0.137605   -0.563596    0.477839   -0.024839
12
* Frequency(19)  970.5115
C     1.233665    0.528278   -0.071139   -0.361321    0.048636    0.005774
C     1.146322   -0.819786    0.031904    0.124421   -0.012435   -0.002682
N    -0.119171   -1.398835    0.106583    0.123768   -0.200832    0.011858
C    -1.364940   -0.546787    0.075684   -0.191499    0.119977   -0.004147
N    -0.990145    0.848536   -0.039336    0.274910    0.269788   -0.027452
C     0.218529    1.410195   -0.111692    0.119698   -0.099179    0.004804
O    -2.456972   -1.097260    0.145831   -0.131049   -0.131918    0.013524
O     0.229515    2.619869   -0.202464   -0.058574   -0.095512    0.008547
H     2.095908   -1.396645    0.053099    0.637902    0.560078   -0.053625
H    -0.259444   -2.402991    0.188927    0.154455   -0.216844    0.009822
H    -1.646236    1.674818   -0.084669    0.919355    1.151328   -0.109670
H     2.182953    1.062379   -0.136039   -0.563596    0.477839   -0.024839
12
* Frequency(19)  970.5115
C     1.266517    0.523855   -0.071664   -0.361321    0.048636    0.005774
C     1.135010   -0.818655    0.032148    0.124421   -0.012435   -0.002682
N    -0.130424   -1.380575    0.105505    0.123768   -0.200832    0.011858
C    -1.347528   -0.557696    0.076061   -0.191499    0.119977   -0.004147
N    -1.015141    0.824006   -0.036840    0.274910    0.269788   -0.027452
C     0.207646    1.419213   -0.112129    0.119698   -0.099179    0.004804
O    -2.445056   -1.085266    0.144601   -0.131049   -0.131918    0.013524
O     0.234841    2.628554   -0.203241   -0.058574   -0.095512    0.008547
H     2.037909   -1.447569    0.057974    0.637902    0.560078   -0.053625
H    -0.273487   -2.383276    0.188034    0.154455   -0.216844    0.009822
H    -1.729826    1.570137   -0.074698    0.919355    1.151328   -0.109670
H     2.234196    1.018933   -0.133781   -0.563596    0.477839   -0.024839
12
* Frequency(19)  970.5115
C     1.305891    0.518555   -0.072293   -0.361321    0.048636    0.005774
C     1.121451   -0.817300    0.032440    0.124421   -0.012435   -0.002682
N    -0.143911   -1.358690    0.104213    0.123768   -0.200832    0.011858
C    -1.326660   -0.570770    0.076513   -0.191499    0.119977   -0.004147
N    -1.045099    0.794607   -0.033849    0.274910    0.269788   -0.027452
C     0.194602    1.430021   -0.112653    0.119698   -0.099179    0.004804
O    -2.430776   -1.070890    0.143128   -0.131049   -0.131918    0.013524
O     0.241224    2.638962   -0.204173   -0.058574   -0.095512    0.008547
H     1.968394   -1.508602    0.063818    0.637902    0.560078   -0.053625
H    -0.290318   -2.359645    0.186964    0.154455   -0.216844    0.009822
H    -1.830011    1.444673   -0.062747    0.919355    1.151328   -0.109670
H     2.295613    0.966861   -0.131074   -0.563596    0.477839   -0.024839
12
* Frequency(19)  970.5115
C     1.347521    0.512952   -0.072959   -0.361321    0.048636    0.005774
C     1.107116   -0.815867    0.032749    0.124421   -0.012435   -0.002682
N    -0.158171   -1.335550    0.102847    0.123768   -0.200832    0.011858
C    -1.304596   -0.584594    0.076991   -0.191499    0.119977   -0.004147
N    -1.076773    0.763523   -0.030686    0.274910    0.269788   -0.027452
C     0.180811    1.441448   -0.113206    0.119698   -0.099179    0.004804
O    -2.415677   -1.055691    0.141569   -0.131049   -0.131918    0.013524
O     0.247973    2.649967   -0.205157   -0.058574   -0.095512    0.008547
H     1.894898   -1.573132    0.069996    0.637902    0.560078   -0.053625
H    -0.308114   -2.334661    0.185832    0.154455   -0.216844    0.009822
H    -1.935935    1.312021   -0.050111    0.919355    1.151328   -0.109670
H     2.360549    0.911806   -0.128212   -0.563596    0.477839   -0.024839
12
* Frequency(19)  970.5115
C     1.386895    0.507652   -0.073588   -0.361321    0.048636    0.005774
C     1.093557   -0.814512    0.033041    0.124421   -0.012435   -0.002682
N    -0.171659   -1.313665    0.101554    0.123768   -0.200832    0.011858
C    -1.283728   -0.597668    0.077443   -0.191499    0.119977   -0.004147
N    -1.106731    0.734123   -0.027694    0.274910    0.269788   -0.027452
C     0.167767    1.452255   -0.113730    0.119698   -0.099179    0.004804
O    -2.401396   -1.041316    0.140096   -0.131049   -0.131918    0.013524
O     0.254356    2.660375   -0.206089   -0.058574   -0.095512    0.008547
H     1.825383   -1.634166    0.075840    0.637902    0.560078   -0.053625
H    -0.324946   -2.311031    0.184761    0.154455   -0.216844    0.009822
H    -2.036121    1.186557   -0.038160    0.919355    1.151328   -0.109670
H     2.421966    0.859735   -0.125506   -0.563596    0.477839   -0.024839
12
* Frequency(19)  970.5115
C     1.419747    0.503230   -0.074113   -0.361321    0.048636    0.005774
C     1.082245   -0.813382    0.033285    0.124421   -0.012435   -0.002682
N    -0.182912   -1.295405    0.100476    0.123768   -0.200832    0.011858
C    -1.266316   -0.608576    0.077820   -0.191499    0.119977   -0.004147
N    -1.131726    0.709593   -0.025198    0.274910    0.269788   -0.027452
C     0.156884    1.461273   -0.114166    0.119698   -0.099179    0.004804
O    -2.389481   -1.029321    0.138866   -0.131049   -0.131918    0.013524
O     0.259681    2.669059   -0.206866   -0.058574   -0.095512    0.008547
H     1.767384   -1.685089    0.080716    0.637902    0.560078   -0.053625
H    -0.338989   -2.291315    0.183868    0.154455   -0.216844    0.009822
H    -2.119710    1.081876   -0.028188    0.919355    1.151328   -0.109670
H     2.473209    0.816289   -0.123247   -0.563596    0.477839   -0.024839
12
* Frequency(19)  970.5115
C     1.442517    0.500165   -0.074477   -0.361321    0.048636    0.005774
C     1.074404   -0.812598    0.033454    0.124421   -0.012435   -0.002682
N    -0.190712   -1.282749    0.099729    0.123768   -0.200832    0.011858
C    -1.254249   -0.616137    0.078081   -0.191499    0.119977   -0.004147
N    -1.149050    0.692592   -0.023468    0.274910    0.269788   -0.027452
C     0.149341    1.467523   -0.114469    0.119698   -0.099179    0.004804
O    -2.381222   -1.021008    0.138014   -0.131049   -0.131918    0.013524
O     0.263372    2.675078   -0.207405   -0.058574   -0.095512    0.008547
H     1.727185   -1.720384    0.084095    0.637902    0.560078   -0.053625
H    -0.348722   -2.277650    0.183249    0.154455   -0.216844    0.009822
H    -2.177646    1.009322   -0.021277    0.919355    1.151328   -0.109670
H     2.508725    0.786177   -0.121682   -0.563596    0.477839   -0.024839
12
* Frequency(19)  970.5115
C     1.452736    0.498789   -0.074640   -0.361321    0.048636    0.005774
C     1.070885   -0.812246    0.033530    0.124421   -0.012435   -0.002682
N    -0.194212   -1.277069    0.099393    0.123768   -0.200832    0.011858
C    -1.248832   -0.619530    0.078198   -0.191499    0.119977   -0.004147
N    -1.156826    0.684961   -0.022692    0.274910    0.269788   -0.027452
C     0.145955    1.470328   -0.114605    0.119698   -0.099179    0.004804
O    -2.377516   -1.017277    0.137631   -0.131049   -0.131918    0.013524
O     0.265029    2.677779   -0.207646   -0.058574   -0.095512    0.008547
H     1.709143   -1.736225    0.085612    0.637902    0.560078   -0.053625
H    -0.353091   -2.271517    0.182972    0.154455   -0.216844    0.009822
H    -2.203649    0.976758   -0.018176    0.919355    1.151328   -0.109670
H     2.524666    0.772661   -0.120979   -0.563596    0.477839   -0.024839
12
* Frequency(19)  970.5115
C     1.449299    0.499252   -0.074585   -0.361321    0.048636    0.005774
C     1.072069   -0.812364    0.033504    0.124421   -0.012435   -0.002682
N    -0.193035   -1.278980    0.099506    0.123768   -0.200832    0.011858
C    -1.250654   -0.618389    0.078159   -0.191499    0.119977   -0.004147
N    -1.154210    0.687528   -0.022953    0.274910    0.269788   -0.027452
C     0.147094    1.469384   -0.114559    0.119698   -0.099179    0.004804
O    -2.378763   -1.018532    0.137760   -0.131049   -0.131918    0.013524
O     0.264472    2.676871   -0.207565   -0.058574   -0.095512    0.008547
H     1.715212   -1.730896    0.085102    0.637902    0.560078   -0.053625
H    -0.351621   -2.273580    0.183065    0.154455   -0.216844    0.009822
H    -2.194901    0.987713   -0.019219    0.919355    1.151328   -0.109670
H     2.519304    0.777208   -0.121216   -0.563596    0.477839   -0.024839
12
* Frequency(19)  970.5115
C     1.432576    0.501503   -0.074318   -0.361321    0.048636    0.005774
C     1.077827   -0.812940    0.033380    0.124421   -0.012435   -0.002682
N    -0.187306   -1.288275    0.100055    0.123768   -0.200832    0.011858
C    -1.259517   -0.612836    0.077967   -0.191499    0.119977   -0.004147
N    -1.141487    0.700015   -0.024223    0.274910    0.269788   -0.027452
C     0.152634    1.464794   -0.114337    0.119698   -0.099179    0.004804
O    -2.384828   -1.024638    0.138386   -0.131049   -0.131918    0.013524
O     0.261761    2.672450   -0.207169   -0.058574   -0.095512    0.008547
H     1.744736   -1.704975    0.082620    0.637902    0.560078   -0.053625
H    -0.344473   -2.283616    0.183520    0.154455   -0.216844    0.009822
H    -2.152352    1.040998   -0.024295    0.919355    1.151328   -0.109670
H     2.493219    0.799323   -0.122365   -0.563596    0.477839   -0.024839
12
* Frequency(19)  970.5115
C     1.404381    0.505298   -0.073867   -0.361321    0.048636    0.005774
C     1.087536   -0.813910    0.033171    0.124421   -0.012435   -0.002682
N    -0.177648   -1.303946    0.100980    0.123768   -0.200832    0.011858
C    -1.274461   -0.603474    0.077643   -0.191499    0.119977   -0.004147
N    -1.120034    0.721067   -0.026366    0.274910    0.269788   -0.027452
C     0.161974    1.457055   -0.113962    0.119698   -0.099179    0.004804
O    -2.395054   -1.034932    0.139441   -0.131049   -0.131918    0.013524
O     0.257190    2.664997   -0.206502   -0.058574   -0.095512    0.008547
H     1.794513   -1.661270    0.078435    0.637902    0.560078   -0.053625
H    -0.332420   -2.300537    0.184286    0.154455   -0.216844    0.009822
H    -2.080611    1.130841   -0.032853    0.919355    1.151328   -0.109670
H     2.449240    0.836611   -0.124304   -0.563596    0.477839   -0.024839
12
* Frequency(19)  970.5115
C     1.367768    0.510226   -0.073282   -0.361321    0.048636    0.005774
C     1.100144   -0.815170    0.032899    0.124421   -0.012435   -0.002682
N    -0.165107   -1.324297    0.102182    0.123768   -0.200832    0.011858
C    -1.293865   -0.591317    0.077223   -0.191499    0.119977   -0.004147
N    -1.092178    0.748405   -0.029147    0.274910    0.269788   -0.027452
C     0.174103    1.447005   -0.113475    0.119698   -0.099179    0.004804
O    -2.408333   -1.048299    0.140812   -0.131049   -0.131918    0.013524
O     0.251255    2.655319   -0.205636   -0.058574   -0.095512    0.008547
H     1.859152   -1.604517    0.073001    0.637902    0.560078   -0.053625
H    -0.316769   -2.322510    0.185281    0.154455   -0.216844    0.009822
H    -1.987453    1.247504   -0.043965    0.919355    1.151328   -0.109670
H     2.392131    0.885030   -0.126820   -0.563596    0.477839   -0.024839
12
* Frequency(19)  970.5115
C     1.326706    0.515754   -0.072626   -0.361321    0.048636    0.005774
C     1.114284   -0.816584    0.032594    0.124421   -0.012435   -0.002682
N    -0.151041   -1.347120    0.103530    0.123768   -0.200832    0.011858
C    -1.315628   -0.577682    0.076752   -0.191499    0.119977   -0.004147
N    -1.060936    0.779065   -0.032267    0.274910    0.269788   -0.027452
C     0.187706    1.435734   -0.112929    0.119698   -0.099179    0.004804
O    -2.423226   -1.063291    0.142349   -0.131049   -0.131918    0.013524
O     0.244598    2.644464   -0.204665   -0.058574   -0.095512    0.008547
H     1.931646   -1.540867    0.066907    0.637902    0.560078   -0.053625
H    -0.299216   -2.347153    0.186398    0.154455   -0.216844    0.009822
H    -1.882973    1.378347   -0.056429    0.919355    1.151328   -0.109670
H     2.328081    0.939334   -0.129643   -0.563596    0.477839   -0.024839
