12
* (null), Energy   -1000.0000000
C     1.629965    0.315610   -0.065301    0.213340   -0.171306    0.007474
C     1.417359   -1.016714    0.040627   -0.415815   -0.018641    0.012183
N     0.152106   -1.547217    0.113051    0.533587    0.014894   -0.014782
C    -1.012934   -0.778188    0.084369    0.056778    0.064153   -0.006376
N    -0.757957    0.578797   -0.024165    0.132510    0.064899   -0.008272
C     0.490659    1.235340   -0.105671   -0.243571   -0.019876    0.007721
O    -2.120393   -1.263598    0.148925   -0.196881   -0.065323    0.009937
O     0.547838    2.444022   -0.198224    0.022803    0.034128   -0.003155
H     2.234675   -1.741152    0.074482   -0.054577    0.452417   -0.032946
H     0.004476   -2.547394    0.191756   -1.617884    0.321817    0.017026
H    -1.579890    1.178069   -0.048486   -0.085201   -0.228172    0.019419
H     2.631499    0.738614   -0.122607   -0.096931    0.576004   -0.041037
12
* Frequency(28) 1507.0889
C     1.654210    0.296142   -0.064452    0.213340   -0.171306    0.007474
C     1.370104   -1.018833    0.042012   -0.415815   -0.018641    0.012183
N     0.212746   -1.545524    0.111371    0.533587    0.014894   -0.014782
C    -1.006482   -0.770897    0.083645    0.056778    0.064153   -0.006376
N    -0.742898    0.586172   -0.025105    0.132510    0.064899   -0.008272
C     0.462978    1.233081   -0.104793   -0.243571   -0.019876    0.007721
O    -2.142767   -1.271021    0.150054   -0.196881   -0.065323    0.009937
O     0.550430    2.447901   -0.198582    0.022803    0.034128   -0.003155
H     2.228472   -1.689737    0.070737   -0.054577    0.452417   -0.032946
H    -0.179388   -2.510821    0.193691   -1.617884    0.321817    0.017026
H    -1.589572    1.152138   -0.046279   -0.085201   -0.228172    0.019419
H     2.620483    0.804074   -0.127271   -0.096931    0.576004   -0.041037
12
* Frequency(28) 1507.0889
C     1.675828    0.278784   -0.063694    0.213340   -0.171306    0.007474
C     1.327969   -1.020722    0.043246   -0.415815   -0.018641    0.012183
N     0.266814   -1.544015    0.109874    0.533587    0.014894   -0.014782
C    -1.000728   -0.764397    0.082999    0.056778    0.064153   -0.006376
N    -0.729471    0.592749   -0.025943    0.132510    0.064899   -0.008272
C     0.438297    1.231067   -0.104011   -0.243571   -0.019876    0.007721
O    -2.162717   -1.277641    0.151061   -0.196881   -0.065323    0.009937
O     0.552740    2.451359   -0.198902    0.022803    0.034128   -0.003155
H     2.222942   -1.643893    0.067399   -0.054577    0.452417   -0.032946
H    -0.343327   -2.478212    0.195416   -1.617884    0.321817    0.017026
H    -1.598206    1.129017   -0.044311   -0.085201   -0.228172    0.019419
H     2.610661    0.862440   -0.131429   -0.096931    0.576004   -0.041037
12
* Frequency(28) 1507.0889
C     1.692475    0.265416   -0.063111    0.213340   -0.171306    0.007474
C     1.295522   -1.022176    0.044197   -0.415815   -0.018641    0.012183
N     0.308451   -1.542853    0.108720    0.533587    0.014894   -0.014782
C    -0.996298   -0.759390    0.082501    0.056778    0.064153   -0.006376
N    -0.719130    0.597813   -0.026588    0.132510    0.064899   -0.008272
C     0.419290    1.229516   -0.103408   -0.243571   -0.019876    0.007721
O    -2.178080   -1.282738    0.151836   -0.196881   -0.065323    0.009937
O     0.554520    2.454022   -0.199148    0.022803    0.034128   -0.003155
H     2.218683   -1.608590    0.064828   -0.054577    0.452417   -0.032946
H    -0.469577   -2.453099    0.196745   -1.617884    0.321817    0.017026
H    -1.604854    1.111212   -0.042796   -0.085201   -0.228172    0.019419
H     2.603097    0.907388   -0.134631   -0.096931    0.576004   -0.041037
12
* Frequency(28) 1507.0889
C     1.702349    0.257488   -0.062765    0.213340   -0.171306    0.007474
C     1.276277   -1.023039    0.044761   -0.415815   -0.018641    0.012183
N     0.333147   -1.542164    0.108036    0.533587    0.014894   -0.014782
C    -0.993670   -0.756421    0.082206    0.056778    0.064153   -0.006376
N    -0.712998    0.600817   -0.026971    0.132510    0.064899   -0.008272
C     0.408017    1.228596   -0.103051   -0.243571   -0.019876    0.007721
O    -2.187192   -1.285761    0.152296   -0.196881   -0.065323    0.009937
O     0.555575    2.455601   -0.199294    0.022803    0.034128   -0.003155
H     2.216157   -1.587651    0.063303   -0.054577    0.452417   -0.032946
H    -0.544456   -2.438205    0.197533   -1.617884    0.321817    0.017026
H    -1.608797    1.100652   -0.041897   -0.085201   -0.228172    0.019419
H     2.598611    0.934047   -0.136531   -0.096931    0.576004   -0.041037
12
* Frequency(28) 1507.0889
C     1.704379    0.255858   -0.062694    0.213340   -0.171306    0.007474
C     1.272321   -1.023216    0.044876   -0.415815   -0.018641    0.012183
N     0.338224   -1.542022    0.107895    0.533587    0.014894   -0.014782
C    -0.993130   -0.755811    0.082145    0.056778    0.064153   -0.006376
N    -0.711737    0.601434   -0.027050    0.132510    0.064899   -0.008272
C     0.405700    1.228407   -0.102978   -0.243571   -0.019876    0.007721
O    -2.189066   -1.286383    0.152391   -0.196881   -0.065323    0.009937
O     0.555792    2.455926   -0.199324    0.022803    0.034128   -0.003155
H     2.215638   -1.583346    0.062990   -0.054577    0.452417   -0.032946
H    -0.559849   -2.435143    0.197695   -1.617884    0.321817    0.017026
H    -1.609608    1.098481   -0.041712   -0.085201   -0.228172    0.019419
H     2.597689    0.939527   -0.136921   -0.096931    0.576004   -0.041037
12
* Frequency(28) 1507.0889
C     1.698345    0.260703   -0.062905    0.213340   -0.171306    0.007474
C     1.284082   -1.022689    0.044532   -0.415815   -0.018641    0.012183
N     0.323132   -1.542443    0.108313    0.533587    0.014894   -0.014782
C    -0.994736   -0.757625    0.082326    0.056778    0.064153   -0.006376
N    -0.715485    0.599599   -0.026816    0.132510    0.064899   -0.008272
C     0.412589    1.228969   -0.103196   -0.243571   -0.019876    0.007721
O    -2.183497   -1.284535    0.152110   -0.196881   -0.065323    0.009937
O     0.555147    2.454961   -0.199235    0.022803    0.034128   -0.003155
H     2.217182   -1.596142    0.063922   -0.054577    0.452417   -0.032946
H    -0.514089   -2.444245    0.197213   -1.617884    0.321817    0.017026
H    -1.607198    1.104935   -0.042261   -0.085201   -0.228172    0.019419
H     2.600431    0.923235   -0.135761   -0.096931    0.576004   -0.041037
12
* Frequency(28) 1507.0889
C     1.684901    0.271498   -0.063376    0.213340   -0.171306    0.007474
C     1.310285   -1.021514    0.043764   -0.415815   -0.018641    0.012183
N     0.289507   -1.543382    0.109245    0.533587    0.014894   -0.014782
C    -0.998314   -0.761668    0.082727    0.056778    0.064153   -0.006376
N    -0.723835    0.595509   -0.026295    0.132510    0.064899   -0.008272
C     0.427938    1.230222   -0.103683   -0.243571   -0.019876    0.007721
O    -2.171090   -1.280419    0.151484   -0.196881   -0.065323    0.009937
O     0.553710    2.452810   -0.199036    0.022803    0.034128   -0.003155
H     2.220621   -1.624653    0.065998   -0.054577    0.452417   -0.032946
H    -0.412134   -2.464525    0.196140   -1.617884    0.321817    0.017026
H    -1.601829    1.119314   -0.043485   -0.085201   -0.228172    0.019419
H     2.606539    0.886937   -0.133174   -0.096931    0.576004   -0.041037
12
* Frequency(28) 1507.0889
C     1.665503    0.287074   -0.064056    0.213340   -0.171306    0.007474
C     1.348092   -1.019819    0.042656   -0.415815   -0.018641    0.012183
N     0.240992   -1.544736    0.110589    0.533587    0.014894   -0.014782
C    -1.003476   -0.767501    0.083307    0.056778    0.064153   -0.006376
N    -0.735883    0.589608   -0.025543    0.132510    0.064899   -0.008272
C     0.450084    1.232029   -0.104385   -0.243571   -0.019876    0.007721
O    -2.153189   -1.274479    0.150580   -0.196881   -0.065323    0.009937
O     0.551637    2.449707   -0.198749    0.022803    0.034128   -0.003155
H     2.225583   -1.665787    0.068993   -0.054577    0.452417   -0.032946
H    -0.265033   -2.493786    0.194592   -1.617884    0.321817    0.017026
H    -1.594083    1.140059   -0.045251   -0.085201   -0.228172    0.019419
H     2.615352    0.834566   -0.129443   -0.096931    0.576004   -0.041037
12
* Frequency(28) 1507.0889
C     1.642255    0.305741   -0.064870    0.213340   -0.171306    0.007474
C     1.393405   -1.017788    0.041329   -0.415815   -0.018641    0.012183
N     0.182845   -1.546359    0.112200    0.533587    0.014894   -0.014782
C    -1.009663   -0.774492    0.084002    0.056778    0.064153   -0.006376
N    -0.750323    0.582536   -0.024641    0.132510    0.064899   -0.008272
C     0.476627    1.234195   -0.105226   -0.243571   -0.019876    0.007721
O    -2.131735   -1.267361    0.149497   -0.196881   -0.065323    0.009937
O     0.549152    2.445988   -0.198405    0.022803    0.034128   -0.003155
H     2.231531   -1.715089    0.072584   -0.054577    0.452417   -0.032946
H    -0.088727   -2.528855    0.192737   -1.617884    0.321817    0.017026
H    -1.584798    1.164924   -0.047367   -0.085201   -0.228172    0.019419
H     2.625915    0.771797   -0.124971   -0.096931    0.576004   -0.041037
12
* Frequency(28) 1507.0889
C     1.617675    0.325479   -0.065731    0.213340   -0.171306    0.007474
C     1.441313   -1.015640    0.039925   -0.415815   -0.018641    0.012183
N     0.121367   -1.548075    0.113903    0.533587    0.014894   -0.014782
C    -1.016205   -0.781884    0.084737    0.056778    0.064153   -0.006376
N    -0.765590    0.575058   -0.023688    0.132510    0.064899   -0.008272
C     0.504690    1.236485   -0.106116   -0.243571   -0.019876    0.007721
O    -2.109051   -1.259835    0.148352   -0.196881   -0.065323    0.009937
O     0.546525    2.442056   -0.198042    0.022803    0.034128   -0.003155
H     2.237819   -1.767215    0.076379   -0.054577    0.452417   -0.032946
H     0.097680   -2.565934    0.190775   -1.617884    0.321817    0.017026
H    -1.574982    1.191213   -0.049604   -0.085201   -0.228172    0.019419
H     2.637083    0.705432   -0.120243   -0.096931    0.576004   -0.041037
12
* Frequency(28) 1507.0889
C     1.594427    0.344146   -0.066546    0.213340   -0.171306    0.007474
C     1.486626   -1.013609    0.038598   -0.415815   -0.018641    0.012183
N     0.063220   -1.549698    0.115514    0.533587    0.014894   -0.014782
C    -1.022392   -0.788875    0.085432    0.056778    0.064153   -0.006376
N    -0.780030    0.567986   -0.022787    0.132510    0.064899   -0.008272
C     0.531233    1.238651   -0.106957   -0.243571   -0.019876    0.007721
O    -2.087596   -1.252716    0.147269   -0.196881   -0.065323    0.009937
O     0.544040    2.438337   -0.197698    0.022803    0.034128   -0.003155
H     2.243766   -1.816516    0.079970   -0.054577    0.452417   -0.032946
H     0.273986   -2.601003    0.188920   -1.617884    0.321817    0.017026
H    -1.565697    1.216078   -0.051720   -0.085201   -0.228172    0.019419
H     2.647646    0.642663   -0.115771   -0.096931    0.576004   -0.041037
12
* Frequency(28) 1507.0889
C     1.575029    0.359722   -0.067225    0.213340   -0.171306    0.007474
C     1.524433   -1.011914    0.037490   -0.415815   -0.018641    0.012183
N     0.014706   -1.551052    0.116858    0.533587    0.014894   -0.014782
C    -1.027555   -0.794707    0.086011    0.056778    0.064153   -0.006376
N    -0.792078    0.562085   -0.022035    0.132510    0.064899   -0.008272
C     0.553379    1.240458   -0.107659   -0.243571   -0.019876    0.007721
O    -2.069695   -1.246777    0.146366   -0.196881   -0.065323    0.009937
O     0.541967    2.435234   -0.197411    0.022803    0.034128   -0.003155
H     2.248729   -1.857651    0.082965   -0.054577    0.452417   -0.032946
H     0.421087   -2.630263    0.187371   -1.617884    0.321817    0.017026
H    -1.557950    1.236824   -0.053486   -0.085201   -0.228172    0.019419
H     2.656459    0.590291   -0.112040   -0.096931    0.576004   -0.041037
12
* Frequency(28) 1507.0889
C     1.561585    0.370517   -0.067696    0.213340   -0.171306    0.007474
C     1.550636   -1.010740    0.036722   -0.415815   -0.018641    0.012183
N    -0.018919   -1.551991    0.117789    0.533587    0.014894   -0.014782
C    -1.031133   -0.798750    0.086413    0.056778    0.064153   -0.006376
N    -0.800429    0.557995   -0.021514    0.132510    0.064899   -0.008272
C     0.568728    1.241710   -0.108146   -0.243571   -0.019876    0.007721
O    -2.057288   -1.242661    0.145740   -0.196881   -0.065323    0.009937
O     0.540530    2.433083   -0.197212    0.022803    0.034128   -0.003155
H     2.252168   -1.886161    0.085041   -0.054577    0.452417   -0.032946
H     0.523042   -2.650543    0.186299   -1.617884    0.321817    0.017026
H    -1.552581    1.251202   -0.054710   -0.085201   -0.228172    0.019419
H     2.662568    0.553993   -0.109454   -0.096931    0.576004   -0.041037
12
* Frequency(28) 1507.0889
C     1.555551    0.375362   -0.067908    0.213340   -0.171306    0.007474
C     1.562397   -1.010212    0.036378   -0.415815   -0.018641    0.012183
N    -0.034011   -1.552412    0.118208    0.533587    0.014894   -0.014782
C    -1.032739   -0.800565    0.086593    0.056778    0.064153   -0.006376
N    -0.804177    0.556160   -0.021280    0.132510    0.064899   -0.008272
C     0.575617    1.242273   -0.108364   -0.243571   -0.019876    0.007721
O    -2.051720   -1.240813    0.145459   -0.196881   -0.065323    0.009937
O     0.539885    2.432118   -0.197123    0.022803    0.034128   -0.003155
H     2.253712   -1.898957    0.085973   -0.054577    0.452417   -0.032946
H     0.568802   -2.659645    0.185817   -1.617884    0.321817    0.017026
H    -1.550171    1.257656   -0.055259   -0.085201   -0.228172    0.019419
H     2.665309    0.537702   -0.108293   -0.096931    0.576004   -0.041037
12
* Frequency(28) 1507.0889
C     1.557581    0.373732   -0.067837    0.213340   -0.171306    0.007474
C     1.558441   -1.010390    0.036494   -0.415815   -0.018641    0.012183
N    -0.028935   -1.552270    0.118067    0.533587    0.014894   -0.014782
C    -1.032198   -0.799954    0.086533    0.056778    0.064153   -0.006376
N    -0.802916    0.556777   -0.021358    0.132510    0.064899   -0.008272
C     0.573300    1.242084   -0.108291   -0.243571   -0.019876    0.007721
O    -2.053593   -1.241435    0.145553   -0.196881   -0.065323    0.009937
O     0.540102    2.432443   -0.197153    0.022803    0.034128   -0.003155
H     2.253192   -1.894652    0.085660   -0.054577    0.452417   -0.032946
H     0.553408   -2.656583    0.185979   -1.617884    0.321817    0.017026
H    -1.550982    1.255485   -0.055074   -0.085201   -0.228172    0.019419
H     2.664387    0.543182   -0.108684   -0.096931    0.576004   -0.041037
12
* Frequency(28) 1507.0889
C     1.567455    0.365804   -0.067491    0.213340   -0.171306    0.007474
C     1.539196   -1.011252    0.037057   -0.415815   -0.018641    0.012183
N    -0.004239   -1.551581    0.117383    0.533587    0.014894   -0.014782
C    -1.029571   -0.796985    0.086238    0.056778    0.064153   -0.006376
N    -0.796783    0.559781   -0.021741    0.132510    0.064899   -0.008272
C     0.562027    1.241164   -0.107933   -0.243571   -0.019876    0.007721
O    -2.062705   -1.244458    0.146013   -0.196881   -0.065323    0.009937
O     0.541157    2.434022   -0.197299    0.022803    0.034128   -0.003155
H     2.250667   -1.873714    0.084135   -0.054577    0.452417   -0.032946
H     0.478530   -2.641689    0.186767   -1.617884    0.321817    0.017026
H    -1.554925    1.244925   -0.054175   -0.085201   -0.228172    0.019419
H     2.659901    0.569840   -0.110583   -0.096931    0.576004   -0.041037
12
* Frequency(28) 1507.0889
C     1.584102    0.352436   -0.066908    0.213340   -0.171306    0.007474
C     1.506749   -1.012707    0.038008   -0.415815   -0.018641    0.012183
N     0.037399   -1.550419    0.116229    0.533587    0.014894   -0.014782
C    -1.025140   -0.791979    0.085740    0.056778    0.064153   -0.006376
N    -0.786443    0.564845   -0.022387    0.132510    0.064899   -0.008272
C     0.543020    1.239613   -0.107331   -0.243571   -0.019876    0.007721
O    -2.078068   -1.249555    0.146789   -0.196881   -0.065323    0.009937
O     0.542936    2.436685   -0.197545    0.022803    0.034128   -0.003155
H     2.246408   -1.838410    0.081564   -0.054577    0.452417   -0.032946
H     0.352280   -2.616577    0.188096   -1.617884    0.321817    0.017026
H    -1.561574    1.227120   -0.052660   -0.085201   -0.228172    0.019419
H     2.652337    0.614788   -0.113785   -0.096931    0.576004   -0.041037
12
* Frequency(28) 1507.0889
C     1.605720    0.335078   -0.066150    0.213340   -0.171306    0.007474
C     1.464614   -1.014596    0.039243   -0.415815   -0.018641    0.012183
N     0.091467   -1.548910    0.114731    0.533587    0.014894   -0.014782
C    -1.019387   -0.785478    0.085094    0.056778    0.064153   -0.006376
N    -0.773016    0.571421   -0.023225    0.132510    0.064899   -0.008272
C     0.518339    1.237599   -0.106548   -0.243571   -0.019876    0.007721
O    -2.098018   -1.256174    0.147796   -0.196881   -0.065323    0.009937
O     0.545247    2.440144   -0.197865    0.022803    0.034128   -0.003155
H     2.240877   -1.792567    0.078226   -0.054577    0.452417   -0.032946
H     0.188341   -2.583967    0.189821   -1.617884    0.321817    0.017026
H    -1.570207    1.203999   -0.050692   -0.085201   -0.228172    0.019419
H     2.642515    0.673154   -0.117944   -0.096931    0.576004   -0.041037
12
* Frequency(28) 1507.0889
C     1.629965    0.315610   -0.065301    0.213340   -0.171306    0.007474
C     1.417359   -1.016714    0.040627   -0.415815   -0.018641    0.012183
N     0.152106   -1.547217    0.113051    0.533587    0.014894   -0.014782
C    -1.012934   -0.778188    0.084369    0.056778    0.064153   -0.006376
N    -0.757957    0.578797   -0.024165    0.132510    0.064899   -0.008272
C     0.490659    1.235340   -0.105671   -0.243571   -0.019876    0.007721
O    -2.120393   -1.263598    0.148925   -0.196881   -0.065323    0.009937
O     0.547838    2.444022   -0.198224    0.022803    0.034128   -0.003155
H     2.234675   -1.741152    0.074482   -0.054577    0.452417   -0.032946
H     0.004476   -2.547394    0.191756   -1.617884    0.321817    0.017026
H    -1.579890    1.178069   -0.048486   -0.085201   -0.228172    0.019419
H     2.631499    0.738614   -0.122607   -0.096931    0.576004   -0.041037
