12
* (null), Energy   -1000.0000000
C     1.326706    0.515754   -0.072626   -0.524776   -0.198895    0.028410
C     1.114284   -0.816584    0.032594    0.264150   -0.262188    0.012392
N    -0.151041   -1.347120    0.103530   -0.029724    0.692438   -0.051653
C    -1.315628   -0.577682    0.076752    0.003841   -0.075930    0.005431
N    -1.060936    0.779065   -0.032267    0.490179   -0.433630    0.020240
C     0.187706    1.435734   -0.112929   -0.128011    0.073869   -0.002349
O    -2.423226   -1.063291    0.142349   -0.106836   -0.038471    0.005654
O     0.244598    2.644464   -0.204665    0.049652    0.168984   -0.013832
H     1.931646   -1.540867    0.066907   -0.101719   -0.675366    0.056662
H    -0.299216   -2.347153    0.186398   -0.351949    0.765099   -0.040415
H    -1.882973    1.378347   -0.056429    0.359349   -0.650386    0.039689
H     2.328081    0.939334   -0.129643   -0.811370    0.411451   -0.012533
12
* Frequency(21)  990.2668
C     1.267068    0.493150   -0.069397   -0.524776   -0.198895    0.028410
C     1.144303   -0.846380    0.034003    0.264150   -0.262188    0.012392
N    -0.154419   -1.268428    0.097660   -0.029724    0.692438   -0.051653
C    -1.315192   -0.586311    0.077369    0.003841   -0.075930    0.005431
N    -1.005229    0.729785   -0.029967    0.490179   -0.433630    0.020240
C     0.173158    1.444129   -0.113196   -0.128011    0.073869   -0.002349
O    -2.435367   -1.067663    0.142991   -0.106836   -0.038471    0.005654
O     0.250241    2.663668   -0.206237    0.049652    0.168984   -0.013832
H     1.920086   -1.617619    0.073347   -0.101719   -0.675366    0.056662
H    -0.339213   -2.260204    0.181805   -0.351949    0.765099   -0.040415
H    -1.842135    1.304434   -0.051918    0.359349   -0.650386    0.039689
H     2.235873    0.986093   -0.131068   -0.811370    0.411451   -0.012533
12
* Frequency(21)  990.2668
C     1.213893    0.472996   -0.066518   -0.524776   -0.198895    0.028410
C     1.171069   -0.872947    0.035258    0.264150   -0.262188    0.012392
N    -0.157431   -1.198263    0.092426   -0.029724    0.692438   -0.051653
C    -1.314802   -0.594005    0.077919    0.003841   -0.075930    0.005431
N    -0.955560    0.685845   -0.027916    0.490179   -0.433630    0.020240
C     0.160187    1.451614   -0.113434   -0.128011    0.073869   -0.002349
O    -2.446193   -1.071561    0.143564   -0.106836   -0.038471    0.005654
O     0.255272    2.680792   -0.207639    0.049652    0.168984   -0.013832
H     1.909779   -1.686054    0.079088   -0.101719   -0.675366    0.056662
H    -0.374876   -2.182677    0.177710   -0.351949    0.765099   -0.040415
H    -1.805722    1.238530   -0.047897    0.359349   -0.650386    0.039689
H     2.153657    1.027785   -0.132337   -0.811370    0.411451   -0.012533
12
* Frequency(21)  990.2668
C     1.172942    0.457476   -0.064301   -0.524776   -0.198895    0.028410
C     1.191682   -0.893407    0.036225    0.264150   -0.262188    0.012392
N    -0.159751   -1.144230    0.088395   -0.029724    0.692438   -0.051653
C    -1.314503   -0.599930    0.078343    0.003841   -0.075930    0.005431
N    -0.917309    0.652008   -0.026337    0.490179   -0.433630    0.020240
C     0.150198    1.457378   -0.113618   -0.128011    0.073869   -0.002349
O    -2.454530   -1.074563    0.144005   -0.106836   -0.038471    0.005654
O     0.259147    2.693978   -0.208718    0.049652    0.168984   -0.013832
H     1.901842   -1.738755    0.083510   -0.101719   -0.675366    0.056662
H    -0.402340   -2.122973    0.174556   -0.351949    0.765099   -0.040415
H    -1.777681    1.187778   -0.044800    0.359349   -0.650386    0.039689
H     2.090343    1.059892   -0.133315   -0.811370    0.411451   -0.012533
12
* Frequency(21)  990.2668
C     1.148655    0.448270   -0.062987   -0.524776   -0.198895    0.028410
C     1.203907   -0.905541    0.036799    0.264150   -0.262188    0.012392
N    -0.161126   -1.112182    0.086005   -0.029724    0.692438   -0.051653
C    -1.314325   -0.603444    0.078594    0.003841   -0.075930    0.005431
N    -0.894623    0.631938   -0.025400    0.490179   -0.433630    0.020240
C     0.144273    1.460797   -0.113726   -0.128011    0.073869   -0.002349
O    -2.459475   -1.076344    0.144267   -0.106836   -0.038471    0.005654
O     0.261445    2.701799   -0.209358    0.049652    0.168984   -0.013832
H     1.897134   -1.770012    0.086132   -0.101719   -0.675366    0.056662
H    -0.418629   -2.087563    0.172685   -0.351949    0.765099   -0.040415
H    -1.761049    1.157677   -0.042963    0.359349   -0.650386    0.039689
H     2.052791    1.078935   -0.133895   -0.811370    0.411451   -0.012533
12
* Frequency(21)  990.2668
C     1.143662    0.446378   -0.062716   -0.524776   -0.198895    0.028410
C     1.206420   -0.908036    0.036917    0.264150   -0.262188    0.012392
N    -0.161409   -1.105594    0.085513   -0.029724    0.692438   -0.051653
C    -1.314288   -0.604166    0.078646    0.003841   -0.075930    0.005431
N    -0.889959    0.627813   -0.025207    0.490179   -0.433630    0.020240
C     0.143055    1.461500   -0.113749   -0.128011    0.073869   -0.002349
O    -2.460491   -1.076710    0.144321   -0.106836   -0.038471    0.005654
O     0.261917    2.703407   -0.209490    0.049652    0.168984   -0.013832
H     1.896166   -1.776438    0.086671   -0.101719   -0.675366    0.056662
H    -0.421978   -2.080283    0.172301   -0.351949    0.765099   -0.040415
H    -1.757630    1.151489   -0.042585    0.359349   -0.650386    0.039689
H     2.045071    1.082850   -0.134015   -0.811370    0.411451   -0.012533
12
* Frequency(21)  990.2668
C     1.158505    0.452004   -0.063520   -0.524776   -0.198895    0.028410
C     1.198949   -0.900620    0.036566    0.264150   -0.262188    0.012392
N    -0.160568   -1.125179    0.086974   -0.029724    0.692438   -0.051653
C    -1.314397   -0.602019    0.078493    0.003841   -0.075930    0.005431
N    -0.903823    0.640077   -0.025780    0.490179   -0.433630    0.020240
C     0.146676    1.459410   -0.113682   -0.128011    0.073869   -0.002349
O    -2.457469   -1.075622    0.144161   -0.106836   -0.038471    0.005654
O     0.260513    2.698627   -0.209098    0.049652    0.168984   -0.013832
H     1.899043   -1.757336    0.085068   -0.101719   -0.675366    0.056662
H    -0.412023   -2.101923    0.173444   -0.351949    0.765099   -0.040415
H    -1.767794    1.169885   -0.043708    0.359349   -0.650386    0.039689
H     2.068020    1.071212   -0.133660   -0.811370    0.411451   -0.012533
12
* Frequency(21)  990.2668
C     1.191574    0.464537   -0.065310   -0.524776   -0.198895    0.028410
C     1.182303   -0.884098    0.035785    0.264150   -0.262188    0.012392
N    -0.158695   -1.168815    0.090229   -0.029724    0.692438   -0.051653
C    -1.314639   -0.597234    0.078150    0.003841   -0.075930    0.005431
N    -0.934713    0.667404   -0.027055    0.490179   -0.433630    0.020240
C     0.154743    1.454755   -0.113534   -0.128011    0.073869   -0.002349
O    -2.450737   -1.073197    0.143804   -0.106836   -0.038471    0.005654
O     0.257384    2.687978   -0.208227    0.049652    0.168984   -0.013832
H     1.905453   -1.714776    0.081498   -0.101719   -0.675366    0.056662
H    -0.389844   -2.150138    0.175991   -0.351949    0.765099   -0.040415
H    -1.790439    1.210870   -0.046209    0.359349   -0.650386    0.039689
H     2.119150    1.045284   -0.132870   -0.811370    0.411451   -0.012533
12
* Frequency(21)  990.2668
C     1.239288    0.482621   -0.067893   -0.524776   -0.198895    0.028410
C     1.158286   -0.860259    0.034659    0.264150   -0.262188    0.012392
N    -0.155993   -1.231773    0.094925   -0.029724    0.692438   -0.051653
C    -1.314988   -0.590330    0.077657    0.003841   -0.075930    0.005431
N    -0.979281    0.706830   -0.028895    0.490179   -0.433630    0.020240
C     0.166382    1.448039   -0.113321   -0.128011    0.073869   -0.002349
O    -2.441023   -1.069699    0.143290   -0.106836   -0.038471    0.005654
O     0.252869    2.672614   -0.206969    0.049652    0.168984   -0.013832
H     1.914702   -1.653371    0.076346   -0.101719   -0.675366    0.056662
H    -0.357845   -2.219702    0.179665   -0.351949    0.765099   -0.040415
H    -1.823112    1.270004   -0.049817    0.359349   -0.650386    0.039689
H     2.192921    1.007874   -0.131731   -0.811370    0.411451   -0.012533
12
* Frequency(21)  990.2668
C     1.296475    0.504296   -0.070989   -0.524776   -0.198895    0.028410
C     1.129501   -0.831688    0.033308    0.264150   -0.262188    0.012392
N    -0.152754   -1.307230    0.100554   -0.029724    0.692438   -0.051653
C    -1.315407   -0.582056    0.077065    0.003841   -0.075930    0.005431
N    -1.032697    0.754084   -0.031101    0.490179   -0.433630    0.020240
C     0.180332    1.439989   -0.113065   -0.128011    0.073869   -0.002349
O    -2.429381   -1.065507    0.142674   -0.106836   -0.038471    0.005654
O     0.247459    2.654199   -0.205462    0.049652    0.168984   -0.013832
H     1.925786   -1.579774    0.070171   -0.101719   -0.675366    0.056662
H    -0.319491   -2.303077    0.184069   -0.351949    0.765099   -0.040415
H    -1.862272    1.340879   -0.054142    0.359349   -0.650386    0.039689
H     2.281339    0.963037   -0.130365   -0.811370    0.411451   -0.012533
12
* Frequency(21)  990.2668
C     1.356937    0.527212   -0.074263   -0.524776   -0.198895    0.028410
C     1.099066   -0.801480    0.031880    0.264150   -0.262188    0.012392
N    -0.149329   -1.387010    0.106505   -0.029724    0.692438   -0.051653
C    -1.315849   -0.573308    0.076439    0.003841   -0.075930    0.005431
N    -1.089174    0.804045   -0.033433    0.490179   -0.433630    0.020240
C     0.195081    1.431479   -0.112794   -0.128011    0.073869   -0.002349
O    -2.417071   -1.061075    0.142023   -0.106836   -0.038471    0.005654
O     0.241738    2.634729   -0.203868    0.049652    0.168984   -0.013832
H     1.937506   -1.501961    0.063643   -0.101719   -0.675366    0.056662
H    -0.278941   -2.391229    0.188726   -0.351949    0.765099   -0.040415
H    -1.903675    1.415814   -0.058715    0.359349   -0.650386    0.039689
H     2.374822    0.915631   -0.128921   -0.811370    0.411451   -0.012533
12
* Frequency(21)  990.2668
C     1.414124    0.548886   -0.077358   -0.524776   -0.198895    0.028410
C     1.070281   -0.772908    0.030530    0.264150   -0.262188    0.012392
N    -0.146090   -1.462468    0.112134   -0.029724    0.692438   -0.051653
C    -1.316268   -0.565033    0.075847    0.003841   -0.075930    0.005431
N    -1.142590    0.851299   -0.035639    0.490179   -0.433630    0.020240
C     0.209030    1.423429   -0.112538   -0.128011    0.073869   -0.002349
O    -2.405429   -1.056882    0.141407   -0.106836   -0.038471    0.005654
O     0.236327    2.616315   -0.202361    0.049652    0.168984   -0.013832
H     1.948591   -1.428364    0.057468   -0.101719   -0.675366    0.056662
H    -0.240588   -2.474605    0.193130   -0.351949    0.765099   -0.040415
H    -1.942834    1.486689   -0.063040    0.359349   -0.650386    0.039689
H     2.463240    0.870794   -0.127556   -0.811370    0.411451   -0.012533
12
* Frequency(21)  990.2668
C     1.461837    0.566970   -0.079942   -0.524776   -0.198895    0.028410
C     1.046264   -0.749069    0.029403    0.264150   -0.262188    0.012392
N    -0.143387   -1.525425    0.116830   -0.029724    0.692438   -0.051653
C    -1.316617   -0.558130    0.075353    0.003841   -0.075930    0.005431
N    -1.187158    0.890726   -0.037479    0.490179   -0.433630    0.020240
C     0.220669    1.416713   -0.112324   -0.128011    0.073869   -0.002349
O    -2.395715   -1.053384    0.140893   -0.106836   -0.038471    0.005654
O     0.231813    2.600950   -0.201103    0.049652    0.168984   -0.013832
H     1.957839   -1.366958    0.052317   -0.101719   -0.675366    0.056662
H    -0.208588   -2.544169    0.196805   -0.351949    0.765099   -0.040415
H    -1.975507    1.545823   -0.066649    0.359349   -0.650386    0.039689
H     2.537011    0.833384   -0.126416   -0.811370    0.411451   -0.012533
12
* Frequency(21)  990.2668
C     1.494907    0.579504   -0.081732   -0.524776   -0.198895    0.028410
C     1.029618   -0.732547    0.028622    0.264150   -0.262188    0.012392
N    -0.141514   -1.569061    0.120085   -0.029724    0.692438   -0.051653
C    -1.316859   -0.553345    0.075011    0.003841   -0.075930    0.005431
N    -1.218048    0.918052   -0.038754    0.490179   -0.433630    0.020240
C     0.228736    1.412058   -0.112176   -0.128011    0.073869   -0.002349
O    -2.388983   -1.050960    0.140536   -0.106836   -0.038471    0.005654
O     0.228684    2.590301   -0.200232    0.049652    0.168984   -0.013832
H     1.964249   -1.324399    0.048746   -0.101719   -0.675366    0.056662
H    -0.186409   -2.592383    0.199351   -0.351949    0.765099   -0.040415
H    -1.998152    1.586809   -0.069150    0.359349   -0.650386    0.039689
H     2.588142    0.807455   -0.125626   -0.811370    0.411451   -0.012533
12
* Frequency(21)  990.2668
C     1.509750    0.585129   -0.082535   -0.524776   -0.198895    0.028410
C     1.022147   -0.725131    0.028272    0.264150   -0.262188    0.012392
N    -0.140674   -1.588646    0.121546   -0.029724    0.692438   -0.051653
C    -1.316968   -0.551197    0.074858    0.003841   -0.075930    0.005431
N    -1.231912    0.930317   -0.039327    0.490179   -0.433630    0.020240
C     0.232357    1.409968   -0.112110   -0.128011    0.073869   -0.002349
O    -2.385961   -1.049872    0.140376   -0.106836   -0.038471    0.005654
O     0.227279    2.585522   -0.199840    0.049652    0.168984   -0.013832
H     1.967126   -1.305297    0.047143   -0.101719   -0.675366    0.056662
H    -0.176455   -2.614023    0.200494   -0.351949    0.765099   -0.040415
H    -2.008316    1.605204   -0.070272    0.359349   -0.650386    0.039689
H     2.611090    0.795818   -0.125272   -0.811370    0.411451   -0.012533
12
* Frequency(21)  990.2668
C     1.504757    0.583237   -0.082265   -0.524776   -0.198895    0.028410
C     1.024660   -0.727626    0.028390    0.264150   -0.262188    0.012392
N    -0.140956   -1.582058    0.121055   -0.029724    0.692438   -0.051653
C    -1.316931   -0.551920    0.074909    0.003841   -0.075930    0.005431
N    -1.227249    0.926191   -0.039134    0.490179   -0.433630    0.020240
C     0.231139    1.410671   -0.112132   -0.128011    0.073869   -0.002349
O    -2.386978   -1.050238    0.140430   -0.106836   -0.038471    0.005654
O     0.227752    2.587130   -0.199972    0.049652    0.168984   -0.013832
H     1.966158   -1.311722    0.047683   -0.101719   -0.675366    0.056662
H    -0.179803   -2.606744    0.200110   -0.351949    0.765099   -0.040415
H    -2.004897    1.599016   -0.069895    0.359349   -0.650386    0.039689
H     2.603371    0.799733   -0.125391   -0.811370    0.411451   -0.012533
12
* Frequency(21)  990.2668
C     1.480470    0.574031   -0.080950   -0.524776   -0.198895    0.028410
C     1.036885   -0.739760    0.028963    0.264150   -0.262188    0.012392
N    -0.142332   -1.550010    0.118664   -0.029724    0.692438   -0.051653
C    -1.316754   -0.555434    0.075161    0.003841   -0.075930    0.005431
N    -1.204562    0.906122   -0.038198    0.490179   -0.433630    0.020240
C     0.225214    1.414090   -0.112241   -0.128011    0.073869   -0.002349
O    -2.391922   -1.052018    0.140692   -0.106836   -0.038471    0.005654
O     0.230050    2.594950   -0.200612    0.049652    0.168984   -0.013832
H     1.961451   -1.342980    0.050305   -0.101719   -0.675366    0.056662
H    -0.196092   -2.571334    0.198239   -0.351949    0.765099   -0.040415
H    -1.988266    1.568915   -0.068058    0.359349   -0.650386    0.039689
H     2.565819    0.818775   -0.125971   -0.811370    0.411451   -0.012533
12
* Frequency(21)  990.2668
C     1.439519    0.558511   -0.078733   -0.524776   -0.198895    0.028410
C     1.057498   -0.760220    0.029930    0.264150   -0.262188    0.012392
N    -0.144651   -1.495977    0.114634   -0.029724    0.692438   -0.051653
C    -1.316454   -0.561359    0.075584    0.003841   -0.075930    0.005431
N    -1.166312    0.872284   -0.036618    0.490179   -0.433630    0.020240
C     0.215225    1.419854   -0.112424   -0.128011    0.073869   -0.002349
O    -2.400259   -1.055021    0.141133   -0.106836   -0.038471    0.005654
O     0.233924    2.608137   -0.201692    0.049652    0.168984   -0.013832
H     1.953513   -1.395681    0.054726   -0.101719   -0.675366    0.056662
H    -0.223556   -2.511630    0.195086   -0.351949    0.765099   -0.040415
H    -1.960224    1.518163   -0.064961    0.359349   -0.650386    0.039689
H     2.502505    0.850883   -0.126949   -0.811370    0.411451   -0.012533
12
* Frequency(21)  990.2668
C     1.386344    0.538357   -0.075855   -0.524776   -0.198895    0.028410
C     1.084264   -0.786787    0.031186    0.264150   -0.262188    0.012392
N    -0.147663   -1.425812    0.109400   -0.029724    0.692438   -0.051653
C    -1.316065   -0.569053    0.076135    0.003841   -0.075930    0.005431
N    -1.116642    0.828344   -0.034567    0.490179   -0.433630    0.020240
C     0.202254    1.427339   -0.112662   -0.128011    0.073869   -0.002349
O    -2.411085   -1.058919    0.141706   -0.106836   -0.038471    0.005654
O     0.238955    2.625260   -0.203093    0.049652    0.168984   -0.013832
H     1.943206   -1.464116    0.060468   -0.101719   -0.675366    0.056662
H    -0.259219   -2.434103    0.190991   -0.351949    0.765099   -0.040415
H    -1.923811    1.452260   -0.060939    0.359349   -0.650386    0.039689
H     2.420289    0.892575   -0.128219   -0.811370    0.411451   -0.012533
12
* Frequency(21)  990.2668
C     1.326706    0.515754   -0.072626   -0.524776   -0.198895    0.028410
C     1.114284   -0.816584    0.032594    0.264150   -0.262188    0.012392
N    -0.151041   -1.347120    0.103530   -0.029724    0.692438   -0.051653
C    -1.315628   -0.577682    0.076752    0.003841   -0.075930    0.005431
N    -1.060936    0.779065   -0.032267    0.490179   -0.433630    0.020240
C     0.187706    1.435734   -0.112929   -0.128011    0.073869   -0.002349
O    -2.423226   -1.063291    0.142349   -0.106836   -0.038471    0.005654
O     0.244598    2.644464   -0.204665    0.049652    0.168984   -0.013832
H     1.931646   -1.540867    0.066907   -0.101719   -0.675366    0.056662
H    -0.299216   -2.347153    0.186398   -0.351949    0.765099   -0.040415
H    -1.882973    1.378347   -0.056429    0.359349   -0.650386    0.039689
H     2.328081    0.939334   -0.129643   -0.811370    0.411451   -0.012533
