12
* (null), Energy   -1000.0000000
C     1.326706    0.515754   -0.072626    0.000829   -0.000435    0.000013
C     1.114284   -0.816584    0.032594   -0.000083   -0.000449    0.000035
N    -0.151041   -1.347120    0.103530    0.001236   -0.000068   -0.000031
C    -1.315628   -0.577682    0.076752   -0.000396   -0.002245    0.000182
N    -1.060936    0.779065   -0.032267   -0.117843    0.087504   -0.003589
C     0.187706    1.435734   -0.112929    0.001353    0.000604   -0.000078
O    -2.423226   -1.063291    0.142349   -0.000421   -0.000022    0.000012
O     0.244598    2.644464   -0.204665   -0.000176    0.000317   -0.000020
H     1.931646   -1.540867    0.066907   -0.000978    0.000870   -0.000043
H    -0.299216   -2.347153    0.186398   -0.001077   -0.014421    0.001172
H    -1.882973    1.378347   -0.056429    1.610072   -1.176277    0.047543
H     2.328081    0.939334   -0.129643    0.001514    0.000223   -0.000062
12
* Frequency(34) 3595.4496
C     1.326800    0.515704   -0.072624    0.000829   -0.000435    0.000013
C     1.114274   -0.816635    0.032598   -0.000083   -0.000449    0.000035
N    -0.150901   -1.347128    0.103526    0.001236   -0.000068   -0.000031
C    -1.315673   -0.577937    0.076773   -0.000396   -0.002245    0.000182
N    -1.074328    0.789009   -0.032675   -0.117843    0.087504   -0.003589
C     0.187860    1.435803   -0.112938    0.001353    0.000604   -0.000078
O    -2.423274   -1.063293    0.142350   -0.000421   -0.000022    0.000012
O     0.244578    2.644500   -0.204667   -0.000176    0.000317   -0.000020
H     1.931535   -1.540769    0.066902   -0.000978    0.000870   -0.000043
H    -0.299339   -2.348792    0.186531   -0.001077   -0.014421    0.001172
H    -1.699997    1.244669   -0.051026    1.610072   -1.176277    0.047543
H     2.328253    0.939359   -0.129650    0.001514    0.000223   -0.000062
12
* Frequency(34) 3595.4496
C     1.326884    0.515660   -0.072623    0.000829   -0.000435    0.000013
C     1.114266   -0.816680    0.032602   -0.000083   -0.000449    0.000035
N    -0.150776   -1.347135    0.103523    0.001236   -0.000068   -0.000031
C    -1.315713   -0.578164    0.076791   -0.000396   -0.002245    0.000182
N    -1.086269    0.797876   -0.033039   -0.117843    0.087504   -0.003589
C     0.187997    1.435864   -0.112946    0.001353    0.000604   -0.000078
O    -2.423317   -1.063295    0.142351   -0.000421   -0.000022    0.000012
O     0.244560    2.644532   -0.204669   -0.000176    0.000317   -0.000020
H     1.931436   -1.540680    0.066898   -0.000978    0.000870   -0.000043
H    -0.299448   -2.350253    0.186650   -0.001077   -0.014421    0.001172
H    -1.536849    1.125477   -0.046208    1.610072   -1.176277    0.047543
H     2.328406    0.939382   -0.129657    0.001514    0.000223   -0.000062
12
* Frequency(34) 3595.4496
C     1.326949    0.515626   -0.072622    0.000829   -0.000435    0.000013
C     1.114259   -0.816715    0.032605   -0.000083   -0.000449    0.000035
N    -0.150679   -1.347140    0.103521    0.001236   -0.000068   -0.000031
C    -1.315744   -0.578340    0.076805   -0.000396   -0.002245    0.000182
N    -1.095465    0.804704   -0.033319   -0.117843    0.087504   -0.003589
C     0.188102    1.435911   -0.112952    0.001353    0.000604   -0.000078
O    -2.423349   -1.063297    0.142352   -0.000421   -0.000022    0.000012
O     0.244547    2.644557   -0.204671   -0.000176    0.000317   -0.000020
H     1.931360   -1.540612    0.066895   -0.000978    0.000870   -0.000043
H    -0.299532   -2.351379    0.186741   -0.001077   -0.014421    0.001172
H    -1.411209    1.033688   -0.042498    1.610072   -1.176277    0.047543
H     2.328525    0.939399   -0.129661    0.001514    0.000223   -0.000062
12
* Frequency(34) 3595.4496
C     1.326987    0.515606   -0.072621    0.000829   -0.000435    0.000013
C     1.114255   -0.816736    0.032606   -0.000083   -0.000449    0.000035
N    -0.150622   -1.347143    0.103519    0.001236   -0.000068   -0.000031
C    -1.315762   -0.578444    0.076814   -0.000396   -0.002245    0.000182
N    -1.100919    0.808754   -0.033485   -0.117843    0.087504   -0.003589
C     0.188165    1.435939   -0.112956    0.001353    0.000604   -0.000078
O    -2.423369   -1.063298    0.142353   -0.000421   -0.000022    0.000012
O     0.244539    2.644572   -0.204672   -0.000176    0.000317   -0.000020
H     1.931314   -1.540572    0.066893   -0.000978    0.000870   -0.000043
H    -0.299582   -2.352046    0.186795   -0.001077   -0.014421    0.001172
H    -1.336692    0.979248   -0.040298    1.610072   -1.176277    0.047543
H     2.328595    0.939410   -0.129664    0.001514    0.000223   -0.000062
12
* Frequency(34) 3595.4496
C     1.326995    0.515602   -0.072621    0.000829   -0.000435    0.000013
C     1.114255   -0.816740    0.032607   -0.000083   -0.000449    0.000035
N    -0.150610   -1.347144    0.103519    0.001236   -0.000068   -0.000031
C    -1.315766   -0.578465    0.076815   -0.000396   -0.002245    0.000182
N    -1.102040    0.809586   -0.033519   -0.117843    0.087504   -0.003589
C     0.188178    1.435945   -0.112956    0.001353    0.000604   -0.000078
O    -2.423373   -1.063298    0.142353   -0.000421   -0.000022    0.000012
O     0.244537    2.644575   -0.204672   -0.000176    0.000317   -0.000020
H     1.931305   -1.540564    0.066892   -0.000978    0.000870   -0.000043
H    -0.299592   -2.352183    0.186806   -0.001077   -0.014421    0.001172
H    -1.321373    0.968056   -0.039846    1.610072   -1.176277    0.047543
H     2.328609    0.939412   -0.129665    0.001514    0.000223   -0.000062
12
* Frequency(34) 3595.4496
C     1.326972    0.515614   -0.072622    0.000829   -0.000435    0.000013
C     1.114257   -0.816727    0.032606   -0.000083   -0.000449    0.000035
N    -0.150645   -1.347142    0.103520    0.001236   -0.000068   -0.000031
C    -1.315755   -0.578401    0.076810   -0.000396   -0.002245    0.000182
N    -1.098707    0.807111   -0.033417   -0.117843    0.087504   -0.003589
C     0.188140    1.435928   -0.112954    0.001353    0.000604   -0.000078
O    -2.423361   -1.063298    0.142352   -0.000421   -0.000022    0.000012
O     0.244542    2.644566   -0.204671   -0.000176    0.000317   -0.000020
H     1.931333   -1.540589    0.066894   -0.000978    0.000870   -0.000043
H    -0.299562   -2.351775    0.186773   -0.001077   -0.014421    0.001172
H    -1.366912    1.001326   -0.041190    1.610072   -1.176277    0.047543
H     2.328566    0.939405   -0.129663    0.001514    0.000223   -0.000062
12
* Frequency(34) 3595.4496
C     1.326919    0.515642   -0.072623    0.000829   -0.000435    0.000013
C     1.114262   -0.816699    0.032603   -0.000083   -0.000449    0.000035
N    -0.150723   -1.347138    0.103522    0.001236   -0.000068   -0.000031
C    -1.315730   -0.578260    0.076799   -0.000396   -0.002245    0.000182
N    -1.091281    0.801597   -0.033191   -0.117843    0.087504   -0.003589
C     0.188054    1.435890   -0.112949    0.001353    0.000604   -0.000078
O    -2.423334   -1.063296    0.142352   -0.000421   -0.000022    0.000012
O     0.244553    2.644546   -0.204670   -0.000176    0.000317   -0.000020
H     1.931394   -1.540643    0.066896   -0.000978    0.000870   -0.000043
H    -0.299494   -2.350867    0.186699   -0.001077   -0.014421    0.001172
H    -1.468374    1.075452   -0.044186    1.610072   -1.176277    0.047543
H     2.328471    0.939391   -0.129659    0.001514    0.000223   -0.000062
12
* Frequency(34) 3595.4496
C     1.326844    0.515681   -0.072624    0.000829   -0.000435    0.000013
C     1.114270   -0.816658    0.032600   -0.000083   -0.000449    0.000035
N    -0.150835   -1.347131    0.103525    0.001236   -0.000068   -0.000031
C    -1.315694   -0.578056    0.076782   -0.000396   -0.002245    0.000182
N    -1.080566    0.793641   -0.032865   -0.117843    0.087504   -0.003589
C     0.187931    1.435835   -0.112942    0.001353    0.000604   -0.000078
O    -2.423296   -1.063294    0.142351   -0.000421   -0.000022    0.000012
O     0.244569    2.644517   -0.204668   -0.000176    0.000317   -0.000020
H     1.931483   -1.540722    0.066900   -0.000978    0.000870   -0.000043
H    -0.299396   -2.349556    0.186593   -0.001077   -0.014421    0.001172
H    -1.614765    1.182401   -0.048509    1.610072   -1.176277    0.047543
H     2.328333    0.939371   -0.129654    0.001514    0.000223   -0.000062
12
* Frequency(34) 3595.4496
C     1.326754    0.515729   -0.072625    0.000829   -0.000435    0.000013
C     1.114279   -0.816610    0.032596   -0.000083   -0.000449    0.000035
N    -0.150970   -1.347124    0.103528    0.001236   -0.000068   -0.000031
C    -1.315651   -0.577811    0.076762   -0.000396   -0.002245    0.000182
N    -1.067724    0.784106   -0.032474   -0.117843    0.087504   -0.003589
C     0.187784    1.435769   -0.112934    0.001353    0.000604   -0.000078
O    -2.423250   -1.063292    0.142349   -0.000421   -0.000022    0.000012
O     0.244588    2.644483   -0.204666   -0.000176    0.000317   -0.000020
H     1.931590   -1.540817    0.066905   -0.000978    0.000870   -0.000043
H    -0.299278   -2.347984    0.186465   -0.001077   -0.014421    0.001172
H    -1.790220    1.310584   -0.053690    1.610072   -1.176277    0.047543
H     2.328168    0.939347   -0.129647    0.001514    0.000223   -0.000062
12
* Frequency(34) 3595.4496
C     1.326658    0.515779   -0.072627    0.000829   -0.000435    0.000013
C     1.114288   -0.816558    0.032592   -0.000083   -0.000449    0.000035
N    -0.151113   -1.347116    0.103532    0.001236   -0.000068   -0.000031
C    -1.315605   -0.577553    0.076741   -0.000396   -0.002245    0.000182
N    -1.054147    0.774024   -0.032060   -0.117843    0.087504   -0.003589
C     0.187628    1.435699   -0.112925    0.001353    0.000604   -0.000078
O    -2.423202   -1.063290    0.142348   -0.000421   -0.000022    0.000012
O     0.244608    2.644446   -0.204664   -0.000176    0.000317   -0.000020
H     1.931702   -1.540918    0.066910   -0.000978    0.000870   -0.000043
H    -0.299154   -2.346323    0.186330   -0.001077   -0.014421    0.001172
H    -1.975726    1.446110   -0.059168    1.610072   -1.176277    0.047543
H     2.327994    0.939321   -0.129640    0.001514    0.000223   -0.000062
12
* Frequency(34) 3595.4496
C     1.326568    0.515826   -0.072628    0.000829   -0.000435    0.000013
C     1.114297   -0.816509    0.032588   -0.000083   -0.000449    0.000035
N    -0.151247   -1.347109    0.103535    0.001236   -0.000068   -0.000031
C    -1.315562   -0.577308    0.076722   -0.000396   -0.002245    0.000182
N    -1.041305    0.764488   -0.031669   -0.117843    0.087504   -0.003589
C     0.187481    1.435633   -0.112916    0.001353    0.000604   -0.000078
O    -2.423156   -1.063287    0.142347   -0.000421   -0.000022    0.000012
O     0.244627    2.644411   -0.204662   -0.000176    0.000317   -0.000020
H     1.931809   -1.541012    0.066914   -0.000978    0.000870   -0.000043
H    -0.299037   -2.344751    0.186203   -0.001077   -0.014421    0.001172
H    -2.151181    1.574293   -0.064349    1.610072   -1.176277    0.047543
H     2.327829    0.939297   -0.129633    0.001514    0.000223   -0.000062
12
* Frequency(34) 3595.4496
C     1.326493    0.515865   -0.072629    0.000829   -0.000435    0.000013
C     1.114305   -0.816468    0.032585   -0.000083   -0.000449    0.000035
N    -0.151360   -1.347102    0.103538    0.001236   -0.000068   -0.000031
C    -1.315526   -0.577104    0.076705   -0.000396   -0.002245    0.000182
N    -1.030591    0.756532   -0.031343   -0.117843    0.087504   -0.003589
C     0.187358    1.435578   -0.112909    0.001353    0.000604   -0.000078
O    -2.423118   -1.063285    0.142345   -0.000421   -0.000022    0.000012
O     0.244643    2.644383   -0.204660   -0.000176    0.000317   -0.000020
H     1.931898   -1.541091    0.066918   -0.000978    0.000870   -0.000043
H    -0.298939   -2.343440    0.186096   -0.001077   -0.014421    0.001172
H    -2.297572    1.681242   -0.068671    1.610072   -1.176277    0.047543
H     2.327691    0.939276   -0.129627    0.001514    0.000223   -0.000062
12
* Frequency(34) 3595.4496
C     1.326440    0.515893   -0.072630    0.000829   -0.000435    0.000013
C     1.114310   -0.816440    0.032583   -0.000083   -0.000449    0.000035
N    -0.151438   -1.347098    0.103540    0.001236   -0.000068   -0.000031
C    -1.315501   -0.576962    0.076694   -0.000396   -0.002245    0.000182
N    -1.023164    0.751018   -0.031117   -0.117843    0.087504   -0.003589
C     0.187273    1.435540   -0.112904    0.001353    0.000604   -0.000078
O    -2.423091   -1.063284    0.142345   -0.000421   -0.000022    0.000012
O     0.244654    2.644363   -0.204659   -0.000176    0.000317   -0.000020
H     1.931959   -1.541146    0.066921   -0.000978    0.000870   -0.000043
H    -0.298871   -2.342531    0.186022   -0.001077   -0.014421    0.001172
H    -2.399034    1.755368   -0.071667    1.610072   -1.176277    0.047543
H     2.327595    0.939262   -0.129623    0.001514    0.000223   -0.000062
12
* Frequency(34) 3595.4496
C     1.326417    0.515905   -0.072630    0.000829   -0.000435    0.000013
C     1.114312   -0.816427    0.032582   -0.000083   -0.000449    0.000035
N    -0.151472   -1.347096    0.103541    0.001236   -0.000068   -0.000031
C    -1.315490   -0.576899    0.076688   -0.000396   -0.002245    0.000182
N    -1.019831    0.748543   -0.031015   -0.117843    0.087504   -0.003589
C     0.187234    1.435523   -0.112902    0.001353    0.000604   -0.000078
O    -2.423079   -1.063283    0.142344   -0.000421   -0.000022    0.000012
O     0.244659    2.644354   -0.204658   -0.000176    0.000317   -0.000020
H     1.931987   -1.541171    0.066922   -0.000978    0.000870   -0.000043
H    -0.298841   -2.342123    0.185989   -0.001077   -0.014421    0.001172
H    -2.444574    1.788637   -0.073012    1.610072   -1.176277    0.047543
H     2.327553    0.939256   -0.129622    0.001514    0.000223   -0.000062
12
* Frequency(34) 3595.4496
C     1.326425    0.515901   -0.072630    0.000829   -0.000435    0.000013
C     1.114312   -0.816432    0.032582   -0.000083   -0.000449    0.000035
N    -0.151461   -1.347097    0.103540    0.001236   -0.000068   -0.000031
C    -1.315494   -0.576920    0.076690   -0.000396   -0.002245    0.000182
N    -1.020953    0.749375   -0.031049   -0.117843    0.087504   -0.003589
C     0.187247    1.435529   -0.112903    0.001353    0.000604   -0.000078
O    -2.423083   -1.063283    0.142344   -0.000421   -0.000022    0.000012
O     0.244658    2.644357   -0.204658   -0.000176    0.000317   -0.000020
H     1.931978   -1.541163    0.066922   -0.000978    0.000870   -0.000043
H    -0.298851   -2.342261    0.186000   -0.001077   -0.014421    0.001172
H    -2.429255    1.777446   -0.072560    1.610072   -1.176277    0.047543
H     2.327567    0.939258   -0.129622    0.001514    0.000223   -0.000062
12
* Frequency(34) 3595.4496
C     1.326463    0.515881   -0.072630    0.000829   -0.000435    0.000013
C     1.114308   -0.816452    0.032584   -0.000083   -0.000449    0.000035
N    -0.151404   -1.347100    0.103539    0.001236   -0.000068   -0.000031
C    -1.315512   -0.577024    0.076699   -0.000396   -0.002245    0.000182
N    -1.026407    0.753425   -0.031215   -0.117843    0.087504   -0.003589
C     0.187310    1.435557   -0.112906    0.001353    0.000604   -0.000078
O    -2.423103   -1.063284    0.142345   -0.000421   -0.000022    0.000012
O     0.244650    2.644371   -0.204659   -0.000176    0.000317   -0.000020
H     1.931933   -1.541122    0.066920   -0.000978    0.000870   -0.000043
H    -0.298901   -2.342928    0.186054   -0.001077   -0.014421    0.001172
H    -2.354738    1.723006   -0.070359    1.610072   -1.176277    0.047543
H     2.327637    0.939268   -0.129625    0.001514    0.000223   -0.000062
12
* Frequency(34) 3595.4496
C     1.326528    0.515847   -0.072629    0.000829   -0.000435    0.000013
C     1.114301   -0.816487    0.032587   -0.000083   -0.000449    0.000035
N    -0.151307   -1.347105    0.103536    0.001236   -0.000068   -0.000031
C    -1.315543   -0.577199    0.076713   -0.000396   -0.002245    0.000182
N    -1.035602    0.760253   -0.031496   -0.117843    0.087504   -0.003589
C     0.187415    1.435604   -0.112913    0.001353    0.000604   -0.000078
O    -2.423136   -1.063286    0.142346   -0.000421   -0.000022    0.000012
O     0.244636    2.644396   -0.204661   -0.000176    0.000317   -0.000020
H     1.931856   -1.541054    0.066916   -0.000978    0.000870   -0.000043
H    -0.298985   -2.344053    0.186146   -0.001077   -0.014421    0.001172
H    -2.229097    1.631216   -0.066649    1.610072   -1.176277    0.047543
H     2.327755    0.939286   -0.129630    0.001514    0.000223   -0.000062
12
* Frequency(34) 3595.4496
C     1.326612    0.515803   -0.072627    0.000829   -0.000435    0.000013
C     1.114293   -0.816533    0.032590   -0.000083   -0.000449    0.000035
N    -0.151182   -1.347112    0.103533    0.001236   -0.000068   -0.000031
C    -1.315583   -0.577427    0.076731   -0.000396   -0.002245    0.000182
N    -1.047543    0.769120   -0.031859   -0.117843    0.087504   -0.003589
C     0.187552    1.435665   -0.112920    0.001353    0.000604   -0.000078
O    -2.423178   -1.063288    0.142347   -0.000421   -0.000022    0.000012
O     0.244618    2.644428   -0.204663   -0.000176    0.000317   -0.000020
H     1.931757   -1.540966    0.066912   -0.000978    0.000870   -0.000043
H    -0.299094   -2.345514    0.186265   -0.001077   -0.014421    0.001172
H    -2.065949    1.512024   -0.061832    1.610072   -1.176277    0.047543
H     2.327909    0.939308   -0.129636    0.001514    0.000223   -0.000062
12
* Frequency(34) 3595.4496
C     1.326706    0.515754   -0.072626    0.000829   -0.000435    0.000013
C     1.114284   -0.816584    0.032594   -0.000083   -0.000449    0.000035
N    -0.151041   -1.347120    0.103530    0.001236   -0.000068   -0.000031
C    -1.315628   -0.577682    0.076752   -0.000396   -0.002245    0.000182
N    -1.060936    0.779065   -0.032267   -0.117843    0.087504   -0.003589
C     0.187706    1.435734   -0.112929    0.001353    0.000604   -0.000078
O    -2.423226   -1.063291    0.142349   -0.000421   -0.000022    0.000012
O     0.244598    2.644464   -0.204665   -0.000176    0.000317   -0.000020
H     1.931646   -1.540867    0.066907   -0.000978    0.000870   -0.000043
H    -0.299216   -2.347153    0.186398   -0.001077   -0.014421    0.001172
H    -1.882973    1.378347   -0.056429    1.610072   -1.176277    0.047543
H     2.328081    0.939334   -0.129643    0.001514    0.000223   -0.000062
