12
* (null), Energy   -1000.0000000
C     1.326706    0.515754   -0.072626   -0.087336    0.264266   -0.017585
C     1.114284   -0.816584    0.032594    0.050280   -0.026293    0.000490
N    -0.151041   -1.347120    0.103530    0.170920   -0.095162    0.002776
C    -1.315628   -0.577682    0.076752   -0.068280    0.131707   -0.007830
N    -1.060936    0.779065   -0.032267   -0.120370   -0.253049    0.022161
C     0.187706    1.435734   -0.112929   -0.032803   -0.005385    0.001094
O    -2.423226   -1.063291    0.142349    0.041823    0.031495   -0.003519
O     0.244598    2.644464   -0.204665    0.044570    0.036874   -0.003858
H     1.931646   -1.540867    0.066907   -0.717490   -0.916174    0.086686
H    -0.299216   -2.347153    0.186398   -0.742258    0.022968    0.016900
H    -1.882973    1.378347   -0.056429    0.743300    0.916831   -0.088088
H     2.328081    0.939334   -0.129643    0.288802   -0.610918    0.039023
12
* Frequency(25) 1377.0817
C     1.316781    0.545786   -0.074624   -0.087336    0.264266   -0.017585
C     1.119998   -0.819572    0.032650    0.050280   -0.026293    0.000490
N    -0.131617   -1.357935    0.103845    0.170920   -0.095162    0.002776
C    -1.323388   -0.562714    0.075862   -0.068280    0.131707   -0.007830
N    -1.074615    0.750307   -0.029749   -0.120370   -0.253049    0.022161
C     0.183978    1.435122   -0.112805   -0.032803   -0.005385    0.001094
O    -2.418473   -1.059712    0.141949    0.041823    0.031495   -0.003519
O     0.249663    2.648655   -0.205104    0.044570    0.036874   -0.003858
H     1.850107   -1.644986    0.076759   -0.717490   -0.916174    0.086686
H    -0.383570   -2.344543    0.188318   -0.742258    0.022968    0.016900
H    -1.798501    1.482540   -0.066439    0.743300    0.916831   -0.088088
H     2.360902    0.869906   -0.125209    0.288802   -0.610918    0.039023
12
* Frequency(25) 1377.0817
C     1.307931    0.572564   -0.076406   -0.087336    0.264266   -0.017585
C     1.125092   -0.822236    0.032700    0.050280   -0.026293    0.000490
N    -0.114298   -1.367577    0.104127    0.170920   -0.095162    0.002776
C    -1.330306   -0.549368    0.075069   -0.068280    0.131707   -0.007830
N    -1.086812    0.724666   -0.027503   -0.120370   -0.253049    0.022161
C     0.180654    1.434576   -0.112694   -0.032803   -0.005385    0.001094
O    -2.414235   -1.056520    0.141592    0.041823    0.031495   -0.003519
O     0.254180    2.652391   -0.205494    0.044570    0.036874   -0.003858
H     1.777404   -1.737821    0.085542   -0.717490   -0.916174    0.086686
H    -0.458783   -2.342216    0.190031   -0.742258    0.022968    0.016900
H    -1.723183    1.575442   -0.075365    0.743300    0.916831   -0.088088
H     2.390166    0.808002   -0.121254    0.288802   -0.610918    0.039023
12
* Frequency(25) 1377.0817
C     1.301116    0.593186   -0.077778   -0.087336    0.264266   -0.017585
C     1.129016   -0.824288    0.032738    0.050280   -0.026293    0.000490
N    -0.100960   -1.375003    0.104343    0.170920   -0.095162    0.002776
C    -1.335635   -0.539091    0.074458   -0.068280    0.131707   -0.007830
N    -1.096205    0.704919   -0.025774   -0.120370   -0.253049    0.022161
C     0.178094    1.434156   -0.112609   -0.032803   -0.005385    0.001094
O    -2.410972   -1.054063    0.141317    0.041823    0.031495   -0.003519
O     0.257658    2.655269   -0.205795    0.044570    0.036874   -0.003858
H     1.721416   -1.809314    0.092307   -0.717490   -0.916174    0.086686
H    -0.516704   -2.340424    0.191349   -0.742258    0.022968    0.016900
H    -1.665180    1.646986   -0.082239    0.743300    0.916831   -0.088088
H     2.412702    0.760330   -0.118209    0.288802   -0.610918    0.039023
12
* Frequency(25) 1377.0817
C     1.297074    0.605416   -0.078592   -0.087336    0.264266   -0.017585
C     1.131343   -0.825505    0.032761    0.050280   -0.026293    0.000490
N    -0.093050   -1.379408    0.104472    0.170920   -0.095162    0.002776
C    -1.338795   -0.532995    0.074095   -0.068280    0.131707   -0.007830
N    -1.101776    0.693208   -0.024748   -0.120370   -0.253049    0.022161
C     0.176576    1.433907   -0.112558   -0.032803   -0.005385    0.001094
O    -2.409036   -1.052605    0.141155    0.041823    0.031495   -0.003519
O     0.259720    2.656975   -0.205974    0.044570    0.036874   -0.003858
H     1.688209   -1.851716    0.096319   -0.717490   -0.916174    0.086686
H    -0.551057   -2.339361    0.192132   -0.742258    0.022968    0.016900
H    -1.630779    1.689418   -0.086316    0.743300    0.916831   -0.088088
H     2.426068    0.732055   -0.116403    0.288802   -0.610918    0.039023
12
* Frequency(25) 1377.0817
C     1.296243    0.607931   -0.078760   -0.087336    0.264266   -0.017585
C     1.131821   -0.825755    0.032765    0.050280   -0.026293    0.000490
N    -0.091424   -1.380313    0.104498    0.170920   -0.095162    0.002776
C    -1.339444   -0.531742    0.074021   -0.068280    0.131707   -0.007830
N    -1.102921    0.690800   -0.024537   -0.120370   -0.253049    0.022161
C     0.176264    1.433856   -0.112548   -0.032803   -0.005385    0.001094
O    -2.408638   -1.052305    0.141121    0.041823    0.031495   -0.003519
O     0.260145    2.657326   -0.206011    0.044570    0.036874   -0.003858
H     1.681382   -1.860433    0.097144   -0.717490   -0.916174    0.086686
H    -0.558119   -2.339142    0.192292   -0.742258    0.022968    0.016900
H    -1.623707    1.698142   -0.087154    0.743300    0.916831   -0.088088
H     2.428816    0.726243   -0.116032    0.288802   -0.610918    0.039023
12
* Frequency(25) 1377.0817
C     1.298713    0.600456   -0.078262   -0.087336    0.264266   -0.017585
C     1.130399   -0.825011    0.032751    0.050280   -0.026293    0.000490
N    -0.096258   -1.377621    0.104420    0.170920   -0.095162    0.002776
C    -1.337513   -0.535467    0.074242   -0.068280    0.131707   -0.007830
N    -1.099517    0.697957   -0.025164   -0.120370   -0.253049    0.022161
C     0.177192    1.434008   -0.112579   -0.032803   -0.005385    0.001094
O    -2.409821   -1.053196    0.141221    0.041823    0.031495   -0.003519
O     0.258884    2.656283   -0.205902    0.044570    0.036874   -0.003858
H     1.701676   -1.834520    0.094692   -0.717490   -0.916174    0.086686
H    -0.537125   -2.339792    0.191814   -0.742258    0.022968    0.016900
H    -1.644730    1.672210   -0.084663    0.743300    0.916831   -0.088088
H     2.420648    0.743522   -0.117136    0.288802   -0.610918    0.039023
12
* Frequency(25) 1377.0817
C     1.304217    0.583803   -0.077154   -0.087336    0.264266   -0.017585
C     1.127231   -0.823354    0.032720    0.050280   -0.026293    0.000490
N    -0.107029   -1.371625    0.104245    0.170920   -0.095162    0.002776
C    -1.333210   -0.543767    0.074736   -0.068280    0.131707   -0.007830
N    -1.091931    0.713904   -0.026560   -0.120370   -0.253049    0.022161
C     0.179259    1.434347   -0.112648   -0.032803   -0.005385    0.001094
O    -2.412457   -1.055181    0.141442    0.041823    0.031495   -0.003519
O     0.256075    2.653959   -0.205659    0.044570    0.036874   -0.003858
H     1.746890   -1.776785    0.089229   -0.717490   -0.916174    0.086686
H    -0.490350   -2.341239    0.190749   -0.742258    0.022968    0.016900
H    -1.691571    1.614434   -0.079112    0.743300    0.916831   -0.088088
H     2.402448    0.782020   -0.119595    0.288802   -0.610918    0.039023
12
* Frequency(25) 1377.0817
C     1.312157    0.559775   -0.075555   -0.087336    0.264266   -0.017585
C     1.122659   -0.820964    0.032676    0.050280   -0.026293    0.000490
N    -0.122569   -1.362972    0.103992    0.170920   -0.095162    0.002776
C    -1.327002   -0.555742    0.075448   -0.068280    0.131707   -0.007830
N    -1.080987    0.736911   -0.028575   -0.120370   -0.253049    0.022161
C     0.182242    1.434837   -0.112747   -0.032803   -0.005385    0.001094
O    -2.416259   -1.058044    0.141762    0.041823    0.031495   -0.003519
O     0.252023    2.650607   -0.205308    0.044570    0.036874   -0.003858
H     1.812125   -1.693485    0.081348   -0.717490   -0.916174    0.086686
H    -0.422863   -2.343327    0.189213   -0.742258    0.022968    0.016900
H    -1.759153    1.531074   -0.071103    0.743300    0.916831   -0.088088
H     2.376190    0.837566   -0.123143    0.288802   -0.610918    0.039023
12
* Frequency(25) 1377.0817
C     1.321675    0.530977   -0.073639   -0.087336    0.264266   -0.017585
C     1.117180   -0.818098    0.032623    0.050280   -0.026293    0.000490
N    -0.141195   -1.352602    0.103690    0.170920   -0.095162    0.002776
C    -1.319562   -0.570094    0.076301   -0.068280    0.131707   -0.007830
N    -1.067870    0.764487   -0.030990   -0.120370   -0.253049    0.022161
C     0.185816    1.435424   -0.112866   -0.032803   -0.005385    0.001094
O    -2.420817   -1.061476    0.142146    0.041823    0.031495   -0.003519
O     0.247166    2.646588   -0.204887    0.044570    0.036874   -0.003858
H     1.890313   -1.593646    0.071901   -0.717490   -0.916174    0.086686
H    -0.341976   -2.345830    0.187371   -0.742258    0.022968    0.016900
H    -1.840153    1.431164   -0.061503    0.743300    0.916831   -0.088088
H     2.344718    0.904140   -0.127395    0.288802   -0.610918    0.039023
12
* Frequency(25) 1377.0817
C     1.331737    0.500530   -0.071613   -0.087336    0.264266   -0.017585
C     1.111387   -0.815069    0.032566    0.050280   -0.026293    0.000490
N    -0.160888   -1.341638    0.103370    0.170920   -0.095162    0.002776
C    -1.311695   -0.585269    0.077203   -0.068280    0.131707   -0.007830
N    -1.054001    0.793642   -0.033544   -0.120370   -0.253049    0.022161
C     0.189596    1.436044   -0.112992   -0.032803   -0.005385    0.001094
O    -2.425635   -1.065105    0.142551    0.041823    0.031495   -0.003519
O     0.242031    2.642340   -0.204443    0.044570    0.036874   -0.003858
H     1.972979   -1.488088    0.061913   -0.717490   -0.916174    0.086686
H    -0.256456   -2.348476    0.185424   -0.742258    0.022968    0.016900
H    -1.925793    1.325530   -0.051354    0.743300    0.916831   -0.088088
H     2.311444    0.974528   -0.131891    0.288802   -0.610918    0.039023
12
* Frequency(25) 1377.0817
C     1.341255    0.471732   -0.069697   -0.087336    0.264266   -0.017585
C     1.105908   -0.812204    0.032513    0.050280   -0.026293    0.000490
N    -0.179513   -1.331268    0.103067    0.170920   -0.095162    0.002776
C    -1.304254   -0.599622    0.078056   -0.068280    0.131707   -0.007830
N    -1.040884    0.821218   -0.035959   -0.120370   -0.253049    0.022161
C     0.193171    1.436631   -0.113111   -0.032803   -0.005385    0.001094
O    -2.430193   -1.068537    0.142935    0.041823    0.031495   -0.003519
O     0.237174    2.638322   -0.204022    0.044570    0.036874   -0.003858
H     2.051167   -1.388250    0.052467   -0.717490   -0.916174    0.086686
H    -0.175570   -2.350979    0.183583   -0.742258    0.022968    0.016900
H    -2.006793    1.225620   -0.041755    0.743300    0.916831   -0.088088
H     2.279972    1.041102   -0.136144    0.288802   -0.610918    0.039023
12
* Frequency(25) 1377.0817
C     1.349195    0.447704   -0.068098   -0.087336    0.264266   -0.017585
C     1.101336   -0.809813    0.032468    0.050280   -0.026293    0.000490
N    -0.195054   -1.322615    0.102815    0.170920   -0.095162    0.002776
C    -1.298046   -0.611597    0.078768   -0.068280    0.131707   -0.007830
N    -1.029940    0.844225   -0.037974   -0.120370   -0.253049    0.022161
C     0.196153    1.437121   -0.113211   -0.032803   -0.005385    0.001094
O    -2.433996   -1.071401    0.143255    0.041823    0.031495   -0.003519
O     0.233121    2.634969   -0.203672    0.044570    0.036874   -0.003858
H     2.116402   -1.304949    0.044585   -0.717490   -0.916174    0.086686
H    -0.108082   -2.353068    0.182046   -0.742258    0.022968    0.016900
H    -2.074375    1.142260   -0.033746    0.743300    0.916831   -0.088088
H     2.253713    1.096647   -0.139692    0.288802   -0.610918    0.039023
12
* Frequency(25) 1377.0817
C     1.354699    0.431051   -0.066989   -0.087336    0.264266   -0.017585
C     1.098168   -0.808156    0.032437    0.050280   -0.026293    0.000490
N    -0.205825   -1.316619    0.102640    0.170920   -0.095162    0.002776
C    -1.293743   -0.619897    0.079261   -0.068280    0.131707   -0.007830
N    -1.022354    0.860172   -0.039370   -0.120370   -0.253049    0.022161
C     0.198220    1.437460   -0.113280   -0.032803   -0.005385    0.001094
O    -2.436631   -1.073386    0.143476    0.041823    0.031495   -0.003519
O     0.230312    2.632646   -0.203429    0.044570    0.036874   -0.003858
H     2.161616   -1.247215    0.039123   -0.717490   -0.916174    0.086686
H    -0.061307   -2.354515    0.180981   -0.742258    0.022968    0.016900
H    -2.121216    1.084484   -0.028195    0.743300    0.916831   -0.088088
H     2.235514    1.135146   -0.142151    0.288802   -0.610918    0.039023
12
* Frequency(25) 1377.0817
C     1.357169    0.423576   -0.066492   -0.087336    0.264266   -0.017585
C     1.096746   -0.807413    0.032423    0.050280   -0.026293    0.000490
N    -0.210659   -1.313927    0.102561    0.170920   -0.095162    0.002776
C    -1.291812   -0.623622    0.079483   -0.068280    0.131707   -0.007830
N    -1.018950    0.867329   -0.039997   -0.120370   -0.253049    0.022161
C     0.199148    1.437612   -0.113311   -0.032803   -0.005385    0.001094
O    -2.437814   -1.074276    0.143576    0.041823    0.031495   -0.003519
O     0.229052    2.631603   -0.203319    0.044570    0.036874   -0.003858
H     2.181910   -1.221302    0.036671   -0.717490   -0.916174    0.086686
H    -0.040313   -2.355164    0.180503   -0.742258    0.022968    0.016900
H    -2.142240    1.058552   -0.025703    0.743300    0.916831   -0.088088
H     2.227345    1.152425   -0.143255    0.288802   -0.610918    0.039023
12
* Frequency(25) 1377.0817
C     1.356338    0.426091   -0.066659   -0.087336    0.264266   -0.017585
C     1.097224   -0.807663    0.032428    0.050280   -0.026293    0.000490
N    -0.209033   -1.314832    0.102588    0.170920   -0.095162    0.002776
C    -1.292461   -0.622369    0.079408   -0.068280    0.131707   -0.007830
N    -1.020095    0.864921   -0.039786   -0.120370   -0.253049    0.022161
C     0.198836    1.437561   -0.113300   -0.032803   -0.005385    0.001094
O    -2.437416   -1.073977    0.143543    0.041823    0.031495   -0.003519
O     0.229476    2.631953   -0.203356    0.044570    0.036874   -0.003858
H     2.175083   -1.230019    0.037496   -0.717490   -0.916174    0.086686
H    -0.047376   -2.354946    0.180664   -0.742258    0.022968    0.016900
H    -2.135168    1.067275   -0.026542    0.743300    0.916831   -0.088088
H     2.230093    1.146612   -0.142883    0.288802   -0.610918    0.039023
12
* Frequency(25) 1377.0817
C     1.352296    0.438321   -0.067473   -0.087336    0.264266   -0.017585
C     1.099551   -0.808880    0.032451    0.050280   -0.026293    0.000490
N    -0.201122   -1.319237    0.102716    0.170920   -0.095162    0.002776
C    -1.295622   -0.616273    0.079046   -0.068280    0.131707   -0.007830
N    -1.025666    0.853210   -0.038761   -0.120370   -0.253049    0.022161
C     0.197318    1.437312   -0.113250   -0.032803   -0.005385    0.001094
O    -2.435480   -1.072519    0.143380    0.041823    0.031495   -0.003519
O     0.231539    2.633660   -0.203535    0.044570    0.036874   -0.003858
H     2.141877   -1.272421    0.041508   -0.717490   -0.916174    0.086686
H    -0.081729   -2.353883    0.181446   -0.742258    0.022968    0.016900
H    -2.100766    1.109708   -0.030618    0.743300    0.916831   -0.088088
H     2.243460    1.118338   -0.141077    0.288802   -0.610918    0.039023
12
* Frequency(25) 1377.0817
C     1.345481    0.458943   -0.068846   -0.087336    0.264266   -0.017585
C     1.103475   -0.810931    0.032489    0.050280   -0.026293    0.000490
N    -0.187785   -1.326663    0.102933    0.170920   -0.095162    0.002776
C    -1.300950   -0.605995    0.078435   -0.068280    0.131707   -0.007830
N    -1.035059    0.833464   -0.037031   -0.120370   -0.253049    0.022161
C     0.194758    1.436892   -0.113164   -0.032803   -0.005385    0.001094
O    -2.432217   -1.070061    0.143105    0.041823    0.031495   -0.003519
O     0.235017    2.636537   -0.203836    0.044570    0.036874   -0.003858
H     2.085888   -1.343913    0.048272   -0.717490   -0.916174    0.086686
H    -0.139650   -2.352091    0.182765   -0.742258    0.022968    0.016900
H    -2.042764    1.181252   -0.037492    0.743300    0.916831   -0.088088
H     2.265996    1.070666   -0.138032    0.288802   -0.610918    0.039023
12
* Frequency(25) 1377.0817
C     1.336631    0.485721   -0.070627   -0.087336    0.264266   -0.017585
C     1.108569   -0.813596    0.032539    0.050280   -0.026293    0.000490
N    -0.170465   -1.336305    0.103214    0.170920   -0.095162    0.002776
C    -1.307868   -0.592650    0.077642   -0.068280    0.131707   -0.007830
N    -1.047256    0.807822   -0.034786   -0.120370   -0.253049    0.022161
C     0.191434    1.436346   -0.113054   -0.032803   -0.005385    0.001094
O    -2.427979   -1.066870    0.142748    0.041823    0.031495   -0.003519
O     0.239533    2.640274   -0.204227    0.044570    0.036874   -0.003858
H     2.013185   -1.436749    0.057056   -0.717490   -0.916174    0.086686
H    -0.214863   -2.349763    0.184477   -0.742258    0.022968    0.016900
H    -1.967445    1.274154   -0.046418    0.743300    0.916831   -0.088088
H     2.295260    1.008762   -0.134078    0.288802   -0.610918    0.039023
12
* Frequency(25) 1377.0817
C     1.326706    0.515754   -0.072626   -0.087336    0.264266   -0.017585
C     1.114284   -0.816584    0.032594    0.050280   -0.026293    0.000490
N    -0.151041   -1.347120    0.103530    0.170920   -0.095162    0.002776
C    -1.315628   -0.577682    0.076752   -0.068280    0.131707   -0.007830
N    -1.060936    0.779065   -0.032267   -0.120370   -0.253049    0.022161
C     0.187706    1.435734   -0.112929   -0.032803   -0.005385    0.001094
O    -2.423226   -1.063291    0.142349    0.041823    0.031495   -0.003519
O     0.244598    2.644464   -0.204665    0.044570    0.036874   -0.003858
H     1.931646   -1.540867    0.066907   -0.717490   -0.916174    0.086686
H    -0.299216   -2.347153    0.186398   -0.742258    0.022968    0.016900
H    -1.882973    1.378347   -0.056429    0.743300    0.916831   -0.088088
H     2.328081    0.939334   -0.129643    0.288802   -0.610918    0.039023
