12
* (null), Energy   -1000.0000000
C     1.326706    0.515754   -0.072626   -0.002478   -0.006626   -0.082858
C     1.114284   -0.816584    0.032594    0.000891    0.003102    0.047304
N    -0.151041   -1.347120    0.103530   -0.001192   -0.003733   -0.038385
C    -1.315628   -0.577682    0.076752   -0.003147   -0.010466   -0.147716
N    -1.060936    0.779065   -0.032267   -0.030359   -0.090081   -1.198624
C     0.187706    1.435734   -0.112929   -0.003719   -0.010131   -0.135486
O    -2.423226   -1.063291    0.142349    0.017594    0.048871    0.635477
O     0.244598    2.644464   -0.204665    0.016298    0.050788    0.680056
H     1.931646   -1.540867    0.066907    0.007379    0.022724    0.306353
H    -0.299216   -2.347153    0.186398    0.016006    0.051823    0.661705
H    -1.882973    1.378347   -0.056429   -0.026115   -0.077441   -1.029896
H     2.328081    0.939334   -0.129643    0.003964    0.012152    0.169124
12
* Frequency(6)  155.0316
C     1.326424    0.515001   -0.082042   -0.002478   -0.006626   -0.082858
C     1.114385   -0.816231    0.037970    0.000891    0.003102    0.047304
N    -0.151177   -1.347544    0.099168   -0.001192   -0.003733   -0.038385
C    -1.315986   -0.578871    0.059965   -0.003147   -0.010466   -0.147716
N    -1.064386    0.768827   -0.168485   -0.030359   -0.090081   -1.198624
C     0.187283    1.434583   -0.128327   -0.003719   -0.010131   -0.135486
O    -2.421227   -1.057737    0.214567    0.017594    0.048871    0.635477
O     0.246450    2.650236   -0.127380    0.016298    0.050788    0.680056
H     1.932485   -1.538285    0.101723    0.007379    0.022724    0.306353
H    -0.297397   -2.341264    0.261597    0.016006    0.051823    0.661705
H    -1.885941    1.369546   -0.173471   -0.026115   -0.077441   -1.029896
H     2.328531    0.940715   -0.110423    0.003964    0.012152    0.169124
12
* Frequency(6)  155.0316
C     1.326173    0.514329   -0.090438   -0.002478   -0.006626   -0.082858
C     1.114475   -0.815917    0.042764    0.000891    0.003102    0.047304
N    -0.151298   -1.347922    0.095278   -0.001192   -0.003733   -0.038385
C    -1.316305   -0.579932    0.044997   -0.003147   -0.010466   -0.147716
N    -1.067462    0.759699   -0.289941   -0.030359   -0.090081   -1.198624
C     0.186907    1.433556   -0.142055   -0.003719   -0.010131   -0.135486
O    -2.419444   -1.052785    0.278960    0.017594    0.048871    0.635477
O     0.248102    2.655382   -0.058470    0.016298    0.050788    0.680056
H     1.933232   -1.535982    0.132765    0.007379    0.022724    0.306353
H    -0.295775   -2.336013    0.328647    0.016006    0.051823    0.661705
H    -1.888587    1.361699   -0.277830   -0.026115   -0.077441   -1.029896
H     2.328933    0.941946   -0.093286    0.003964    0.012152    0.169124
12
* Frequency(6)  155.0316
C     1.325980    0.513812   -0.096904   -0.002478   -0.006626   -0.082858
C     1.114545   -0.815675    0.046455    0.000891    0.003102    0.047304
N    -0.151391   -1.348214    0.092283   -0.001192   -0.003733   -0.038385
C    -1.316550   -0.580749    0.033470   -0.003147   -0.010466   -0.147716
N    -1.069831    0.752670   -0.383474   -0.030359   -0.090081   -1.198624
C     0.186616    1.432766   -0.152628   -0.003719   -0.010131   -0.135486
O    -2.418071   -1.048971    0.328549    0.017594    0.048871    0.635477
O     0.249374    2.659345   -0.005403    0.016298    0.050788    0.680056
H     1.933808   -1.534209    0.156671    0.007379    0.022724    0.306353
H    -0.294526   -2.331969    0.380283    0.016006    0.051823    0.661705
H    -1.890625    1.355656   -0.358197   -0.026115   -0.077441   -1.029896
H     2.329242    0.942895   -0.080089    0.003964    0.012152    0.169124
12
* Frequency(6)  155.0316
C     1.325865    0.513505   -0.100739   -0.002478   -0.006626   -0.082858
C     1.114586   -0.815531    0.048644    0.000891    0.003102    0.047304
N    -0.151446   -1.348386    0.090506   -0.001192   -0.003733   -0.038385
C    -1.316696   -0.581233    0.026633   -0.003147   -0.010466   -0.147716
N    -1.071236    0.748501   -0.438948   -0.030359   -0.090081   -1.198624
C     0.186444    1.432297   -0.158898   -0.003719   -0.010131   -0.135486
O    -2.417257   -1.046709    0.357960    0.017594    0.048871    0.635477
O     0.250128    2.661696    0.026071    0.016298    0.050788    0.680056
H     1.934150   -1.533157    0.170850    0.007379    0.022724    0.306353
H    -0.293785   -2.329570    0.410907    0.016006    0.051823    0.661705
H    -1.891834    1.352072   -0.405862   -0.026115   -0.077441   -1.029896
H     2.329426    0.943457   -0.072261    0.003964    0.012152    0.169124
12
* Frequency(6)  155.0316
C     1.325842    0.513442   -0.101527   -0.002478   -0.006626   -0.082858
C     1.114594   -0.815502    0.049094    0.000891    0.003102    0.047304
N    -0.151457   -1.348422    0.090141   -0.001192   -0.003733   -0.038385
C    -1.316726   -0.581333    0.025228   -0.003147   -0.010466   -0.147716
N    -1.071525    0.747644   -0.450353   -0.030359   -0.090081   -1.198624
C     0.186409    1.432200   -0.160187   -0.003719   -0.010131   -0.135486
O    -2.417089   -1.046244    0.364006    0.017594    0.048871    0.635477
O     0.250283    2.662179    0.032542    0.016298    0.050788    0.680056
H     1.934220   -1.532941    0.173765    0.007379    0.022724    0.306353
H    -0.293633   -2.329077    0.417203    0.016006    0.051823    0.661705
H    -1.892082    1.351335   -0.415661   -0.026115   -0.077441   -1.029896
H     2.329464    0.943573   -0.070652    0.003964    0.012152    0.169124
12
* Frequency(6)  155.0316
C     1.325912    0.513630   -0.099184   -0.002478   -0.006626   -0.082858
C     1.114569   -0.815589    0.047756    0.000891    0.003102    0.047304
N    -0.151423   -1.348316    0.091227   -0.001192   -0.003733   -0.038385
C    -1.316637   -0.581036    0.029406   -0.003147   -0.010466   -0.147716
N    -1.070666    0.750192   -0.416451   -0.030359   -0.090081   -1.198624
C     0.186514    1.432487   -0.156355   -0.003719   -0.010131   -0.135486
O    -2.417587   -1.047627    0.346032    0.017594    0.048871    0.635477
O     0.249822    2.660743    0.013307    0.016298    0.050788    0.680056
H     1.934011   -1.533584    0.165100    0.007379    0.022724    0.306353
H    -0.294086   -2.330543    0.398488    0.016006    0.051823    0.661705
H    -1.891344    1.353525   -0.386532   -0.026115   -0.077441   -1.029896
H     2.329351    0.943229   -0.075436    0.003964    0.012152    0.169124
12
* Frequency(6)  155.0316
C     1.326068    0.514047   -0.093962   -0.002478   -0.006626   -0.082858
C     1.114513   -0.815785    0.044775    0.000891    0.003102    0.047304
N    -0.151348   -1.348081    0.093646   -0.001192   -0.003733   -0.038385
C    -1.316439   -0.580377    0.038714   -0.003147   -0.010466   -0.147716
N    -1.068753    0.755868   -0.340917   -0.030359   -0.090081   -1.198624
C     0.186748    1.433125   -0.147817   -0.003719   -0.010131   -0.135486
O    -2.418696   -1.050706    0.305986    0.017594    0.048871    0.635477
O     0.248795    2.657542   -0.029548    0.016298    0.050788    0.680056
H     1.933546   -1.535016    0.145794    0.007379    0.022724    0.306353
H    -0.295095   -2.333809    0.356789    0.016006    0.051823    0.661705
H    -1.889698    1.358406   -0.321630   -0.026115   -0.077441   -1.029896
H     2.329102    0.942463   -0.086093    0.003964    0.012152    0.169124
12
* Frequency(6)  155.0316
C     1.326293    0.514650   -0.086429   -0.002478   -0.006626   -0.082858
C     1.114432   -0.816067    0.040474    0.000891    0.003102    0.047304
N    -0.151240   -1.347742    0.097136   -0.001192   -0.003733   -0.038385
C    -1.316152   -0.579425    0.052145   -0.003147   -0.010466   -0.147716
N    -1.065993    0.764059   -0.231936   -0.030359   -0.090081   -1.198624
C     0.187087    1.434046   -0.135499   -0.003719   -0.010131   -0.135486
O    -2.420295   -1.055150    0.248207    0.017594    0.048871    0.635477
O     0.247313    2.652925   -0.091380    0.016298    0.050788    0.680056
H     1.932875   -1.537082    0.117940    0.007379    0.022724    0.306353
H    -0.296550   -2.338521    0.296625    0.016006    0.051823    0.661705
H    -1.887323    1.365447   -0.227990   -0.026115   -0.077441   -1.029896
H     2.328741    0.941358   -0.101470    0.003964    0.012152    0.169124
12
* Frequency(6)  155.0316
C     1.326563    0.515372   -0.077399   -0.002478   -0.006626   -0.082858
C     1.114335   -0.816405    0.035319    0.000891    0.003102    0.047304
N    -0.151110   -1.347335    0.101318   -0.001192   -0.003733   -0.038385
C    -1.315809   -0.578285    0.068242   -0.003147   -0.010466   -0.147716
N    -1.062685    0.773875   -0.101318   -0.030359   -0.090081   -1.198624
C     0.187492    1.435150   -0.120734   -0.003719   -0.010131   -0.135486
O    -2.422213   -1.060475    0.178957    0.017594    0.048871    0.635477
O     0.245537    2.647390   -0.165488    0.016298    0.050788    0.680056
H     1.932071   -1.539558    0.084556    0.007379    0.022724    0.306353
H    -0.298294   -2.344168    0.224517    0.016006    0.051823    0.661705
H    -1.884478    1.373886   -0.115759   -0.026115   -0.077441   -1.029896
H     2.328309    0.940034   -0.119900    0.003964    0.012152    0.169124
12
* Frequency(6)  155.0316
C     1.326849    0.516135   -0.067853   -0.002478   -0.006626   -0.082858
C     1.114232   -0.816762    0.029869    0.000891    0.003102    0.047304
N    -0.150973   -1.346905    0.105741   -0.001192   -0.003733   -0.038385
C    -1.315447   -0.577079    0.085262   -0.003147   -0.010466   -0.147716
N    -1.059187    0.784254    0.036783   -0.030359   -0.090081   -1.198624
C     0.187920    1.436318   -0.105124   -0.003719   -0.010131   -0.135486
O    -2.424240   -1.066106    0.105740    0.017594    0.048871    0.635477
O     0.243659    2.641538   -0.243842    0.016298    0.050788    0.680056
H     1.931221   -1.542177    0.049259    0.007379    0.022724    0.306353
H    -0.300138   -2.350139    0.148278    0.016006    0.051823    0.661705
H    -1.881469    1.382808    0.002902   -0.026115   -0.077441   -1.029896
H     2.327852    0.938634   -0.139386    0.003964    0.012152    0.169124
12
* Frequency(6)  155.0316
C     1.327119    0.516857   -0.058823   -0.002478   -0.006626   -0.082858
C     1.114135   -0.817100    0.024714    0.000891    0.003102    0.047304
N    -0.150843   -1.346498    0.109924   -0.001192   -0.003733   -0.038385
C    -1.315104   -0.575938    0.101359   -0.003147   -0.010466   -0.147716
N    -1.055878    0.794071    0.167402   -0.030359   -0.090081   -1.198624
C     0.188326    1.437422   -0.090360   -0.003719   -0.010131   -0.135486
O    -2.426157   -1.071432    0.036490    0.017594    0.048871    0.635477
O     0.241883    2.636004   -0.317950    0.016298    0.050788    0.680056
H     1.930417   -1.544653    0.015874    0.007379    0.022724    0.306353
H    -0.301883   -2.355786    0.076170    0.016006    0.051823    0.661705
H    -1.878623    1.391247    0.115133   -0.026115   -0.077441   -1.029896
H     2.327420    0.937310   -0.157816    0.003964    0.012152    0.169124
12
* Frequency(6)  155.0316
C     1.327344    0.517460   -0.051290   -0.002478   -0.006626   -0.082858
C     1.114054   -0.817383    0.020413    0.000891    0.003102    0.047304
N    -0.150734   -1.346159    0.113414   -0.001192   -0.003733   -0.038385
C    -1.314818   -0.574987    0.114789   -0.003147   -0.010466   -0.147716
N    -1.053118    0.802261    0.276383   -0.030359   -0.090081   -1.198624
C     0.188664    1.438343   -0.078041   -0.003719   -0.010131   -0.135486
O    -2.427757   -1.075875   -0.021289    0.017594    0.048871    0.635477
O     0.240401    2.631386   -0.379782    0.016298    0.050788    0.680056
H     1.929746   -1.546719   -0.011980    0.007379    0.022724    0.306353
H    -0.303338   -2.360498    0.016007    0.016006    0.051823    0.661705
H    -1.876248    1.398288    0.208773   -0.026115   -0.077441   -1.029896
H     2.327060    0.936205   -0.173193    0.003964    0.012152    0.169124
12
* Frequency(6)  155.0316
C     1.327500    0.517877   -0.046068   -0.002478   -0.006626   -0.082858
C     1.113998   -0.817578    0.017432    0.000891    0.003102    0.047304
N    -0.150659   -1.345924    0.115833   -0.001192   -0.003733   -0.038385
C    -1.314619   -0.574327    0.124098   -0.003147   -0.010466   -0.147716
N    -1.051205    0.807938    0.351917   -0.030359   -0.090081   -1.198624
C     0.188898    1.438981   -0.069503   -0.003719   -0.010131   -0.135486
O    -2.428865   -1.078955   -0.061335    0.017594    0.048871    0.635477
O     0.239374    2.628186   -0.422637    0.016298    0.050788    0.680056
H     1.929281   -1.548151   -0.031285    0.007379    0.022724    0.306353
H    -0.304347   -2.363764   -0.025692    0.016006    0.051823    0.661705
H    -1.874603    1.403168    0.273674   -0.026115   -0.077441   -1.029896
H     2.326810    0.935439   -0.183851    0.003964    0.012152    0.169124
12
* Frequency(6)  155.0316
C     1.327570    0.518065   -0.043724   -0.002478   -0.006626   -0.082858
C     1.113973   -0.817666    0.016094    0.000891    0.003102    0.047304
N    -0.150625   -1.345818    0.116919   -0.001192   -0.003733   -0.038385
C    -1.314530   -0.574031    0.128276   -0.003147   -0.010466   -0.147716
N    -1.050346    0.810485    0.385818   -0.030359   -0.090081   -1.198624
C     0.189003    1.439268   -0.065671   -0.003719   -0.010131   -0.135486
O    -2.429363   -1.080337   -0.079309    0.017594    0.048871    0.635477
O     0.238913    2.626749   -0.441872    0.016298    0.050788    0.680056
H     1.929072   -1.548794   -0.039950    0.007379    0.022724    0.306353
H    -0.304799   -2.365230   -0.044408    0.016006    0.051823    0.661705
H    -1.873864    1.405358    0.302804   -0.026115   -0.077441   -1.029896
H     2.326698    0.935095   -0.188634    0.003964    0.012152    0.169124
12
* Frequency(6)  155.0316
C     1.327547    0.518002   -0.044513   -0.002478   -0.006626   -0.082858
C     1.113981   -0.817636    0.016544    0.000891    0.003102    0.047304
N    -0.150637   -1.345854    0.116553   -0.001192   -0.003733   -0.038385
C    -1.314560   -0.574131    0.126871   -0.003147   -0.010466   -0.147716
N    -1.050635    0.809628    0.374414   -0.030359   -0.090081   -1.198624
C     0.188968    1.439171   -0.066960   -0.003719   -0.010131   -0.135486
O    -2.429196   -1.079872   -0.073263    0.017594    0.048871    0.635477
O     0.239068    2.627233   -0.435401    0.016298    0.050788    0.680056
H     1.929142   -1.548577   -0.037035    0.007379    0.022724    0.306353
H    -0.304647   -2.364736   -0.038112    0.016006    0.051823    0.661705
H    -1.874113    1.404622    0.293005   -0.026115   -0.077441   -1.029896
H     2.326736    0.935211   -0.187025    0.003964    0.012152    0.169124
12
* Frequency(6)  155.0316
C     1.327432    0.517695   -0.048348   -0.002478   -0.006626   -0.082858
C     1.114022   -0.817493    0.018734    0.000891    0.003102    0.047304
N    -0.150692   -1.346026    0.114777   -0.001192   -0.003733   -0.038385
C    -1.314706   -0.574615    0.120034   -0.003147   -0.010466   -0.147716
N    -1.052040    0.805459    0.318940   -0.030359   -0.090081   -1.198624
C     0.188796    1.438703   -0.073231   -0.003719   -0.010131   -0.135486
O    -2.428381   -1.077611   -0.043852    0.017594    0.048871    0.635477
O     0.239823    2.629583   -0.403927    0.016298    0.050788    0.680056
H     1.929484   -1.547526   -0.022857    0.007379    0.022724    0.306353
H    -0.303906   -2.362338   -0.007487    0.016006    0.051823    0.661705
H    -1.875321    1.401037    0.245339   -0.026115   -0.077441   -1.029896
H     2.326919    0.935773   -0.179198    0.003964    0.012152    0.169124
12
* Frequency(6)  155.0316
C     1.327239    0.517178   -0.054813   -0.002478   -0.006626   -0.082858
C     1.114092   -0.817251    0.022425    0.000891    0.003102    0.047304
N    -0.150785   -1.346318    0.111782   -0.001192   -0.003733   -0.038385
C    -1.314951   -0.575432    0.108507   -0.003147   -0.010466   -0.147716
N    -1.054409    0.798430    0.225406   -0.030359   -0.090081   -1.198624
C     0.188506    1.437912   -0.083803   -0.003719   -0.010131   -0.135486
O    -2.427008   -1.073797    0.005737    0.017594    0.048871    0.635477
O     0.241095    2.633546   -0.350860    0.016298    0.050788    0.680056
H     1.930060   -1.545753    0.001049    0.007379    0.022724    0.306353
H    -0.302657   -2.358294    0.044148    0.016006    0.051823    0.661705
H    -1.877359    1.394994    0.164973   -0.026115   -0.077441   -1.029896
H     2.327229    0.936721   -0.166001    0.003964    0.012152    0.169124
12
* Frequency(6)  155.0316
C     1.326988    0.516507   -0.063209   -0.002478   -0.006626   -0.082858
C     1.114182   -0.816936    0.027218    0.000891    0.003102    0.047304
N    -0.150906   -1.346696    0.107892   -0.001192   -0.003733   -0.038385
C    -1.315270   -0.576492    0.093539   -0.003147   -0.010466   -0.147716
N    -1.057486    0.789302    0.103950   -0.030359   -0.090081   -1.198624
C     0.188129    1.436885   -0.097532   -0.003719   -0.010131   -0.135486
O    -2.425226   -1.068845    0.070130    0.017594    0.048871    0.635477
O     0.242746    2.638693   -0.281950    0.016298    0.050788    0.680056
H     1.930807   -1.543450    0.032092    0.007379    0.022724    0.306353
H    -0.301035   -2.353043    0.111198    0.016006    0.051823    0.661705
H    -1.880005    1.387147    0.060614   -0.026115   -0.077441   -1.029896
H     2.327630    0.937953   -0.148863    0.003964    0.012152    0.169124
12
* Frequency(6)  155.0316
C     1.326706    0.515754   -0.072626   -0.002478   -0.006626   -0.082858
C     1.114284   -0.816584    0.032594    0.000891    0.003102    0.047304
N    -0.151041   -1.347120    0.103530   -0.001192   -0.003733   -0.038385
C    -1.315628   -0.577682    0.076752   -0.003147   -0.010466   -0.147716
N    -1.060936    0.779065   -0.032267   -0.030359   -0.090081   -1.198624
C     0.187706    1.435734   -0.112929   -0.003719   -0.010131   -0.135486
O    -2.423226   -1.063291    0.142349    0.017594    0.048871    0.635477
O     0.244598    2.644464   -0.204665    0.016298    0.050788    0.680056
H     1.931646   -1.540867    0.066907    0.007379    0.022724    0.306353
H    -0.299216   -2.347153    0.186398    0.016006    0.051823    0.661705
H    -1.882973    1.378347   -0.056429   -0.026115   -0.077441   -1.029896
H     2.328081    0.939334   -0.129643    0.003964    0.012152    0.169124
