12
* (null), Energy   -1000.0000000
C     1.629965    0.315610   -0.065301   -0.001547   -0.004151   -0.056245
C     1.417359   -1.016714    0.040627    0.006959    0.021161    0.278942
N     0.152106   -1.547217    0.113051   -0.000471   -0.001111   -0.013810
C    -1.012934   -0.778188    0.084369   -0.007338   -0.021816   -0.289669
N    -0.757957    0.578797   -0.024165   -0.002082   -0.006734   -0.086861
C     0.490659    1.235340   -0.105671    0.010264    0.030316    0.402375
O    -2.120393   -1.263598    0.148925    0.002549    0.007223    0.094845
O     0.547838    2.444022   -0.198224   -0.002840   -0.008446   -0.111641
H     2.234675   -1.741152    0.074482   -0.012404   -0.035963   -0.476782
H     0.004476   -2.547394    0.191756   -0.015108   -0.044948   -0.598477
H    -1.579890    1.178069   -0.048486    0.011218    0.032547    0.431549
H     2.631499    0.738614   -0.122607   -0.042952   -0.127182   -1.687344
12
* Frequency(15)  733.4137
C     1.629789    0.315138   -0.071693   -0.001547   -0.004151   -0.056245
C     1.418150   -1.014309    0.072327    0.006959    0.021161    0.278942
N     0.152053   -1.547343    0.111482   -0.000471   -0.001111   -0.013810
C    -1.013768   -0.780667    0.051450   -0.007338   -0.021816   -0.289669
N    -0.758193    0.578032   -0.034036   -0.002082   -0.006734   -0.086861
C     0.491825    1.238785   -0.059943    0.010264    0.030316    0.402375
O    -2.120103   -1.262777    0.159703    0.002549    0.007223    0.094845
O     0.547516    2.443062   -0.210911   -0.002840   -0.008446   -0.111641
H     2.233265   -1.745239    0.020298   -0.012404   -0.035963   -0.476782
H     0.002759   -2.552502    0.123742   -0.015108   -0.044948   -0.598477
H    -1.578615    1.181767    0.000558    0.011218    0.032547    0.431549
H     2.626618    0.724161   -0.314365   -0.042952   -0.127182   -1.687344
12
* Frequency(15)  733.4137
C     1.629632    0.314718   -0.077392   -0.001547   -0.004151   -0.056245
C     1.418855   -1.012165    0.100592    0.006959    0.021161    0.278942
N     0.152005   -1.547456    0.110083   -0.000471   -0.001111   -0.013810
C    -1.014512   -0.782878    0.022098   -0.007338   -0.021816   -0.289669
N    -0.758404    0.577349   -0.042838   -0.002082   -0.006734   -0.086861
C     0.492865    1.241857   -0.019170    0.010264    0.030316    0.402375
O    -2.119845   -1.262045    0.169314    0.002549    0.007223    0.094845
O     0.547228    2.442206   -0.222224   -0.002840   -0.008446   -0.111641
H     2.232008   -1.748883   -0.028014   -0.012404   -0.035963   -0.476782
H     0.001228   -2.557057    0.063098   -0.015108   -0.044948   -0.598477
H    -1.577478    1.185065    0.044287    0.011218    0.032547    0.431549
H     2.622265    0.711273   -0.485343   -0.042952   -0.127182   -1.687344
12
* Frequency(15)  733.4137
C     1.629512    0.314394   -0.081781   -0.001547   -0.004151   -0.056245
C     1.419398   -1.010514    0.122359    0.006959    0.021161    0.278942
N     0.151968   -1.547542    0.109005   -0.000471   -0.001111   -0.013810
C    -1.015084   -0.784580   -0.000506   -0.007338   -0.021816   -0.289669
N    -0.758567    0.576824   -0.049616   -0.002082   -0.006734   -0.086861
C     0.493666    1.244223    0.012228    0.010264    0.030316    0.402375
O    -2.119646   -1.261481    0.176715    0.002549    0.007223    0.094845
O     0.547006    2.441547   -0.230935   -0.002840   -0.008446   -0.111641
H     2.231040   -1.751689   -0.065220   -0.012404   -0.035963   -0.476782
H     0.000050   -2.560564    0.016397   -0.015108   -0.044948   -0.598477
H    -1.576603    1.187605    0.077962    0.011218    0.032547    0.431549
H     2.618914    0.701349   -0.617013   -0.042952   -0.127182   -1.687344
12
* Frequency(15)  733.4137
C     1.629440    0.314201   -0.084384   -0.001547   -0.004151   -0.056245
C     1.419720   -1.009535    0.135269    0.006959    0.021161    0.278942
N     0.151946   -1.547594    0.108366   -0.000471   -0.001111   -0.013810
C    -1.015424   -0.785590   -0.013913   -0.007338   -0.021816   -0.289669
N    -0.758663    0.576512   -0.053636   -0.002082   -0.006734   -0.086861
C     0.494141    1.245626    0.030851    0.010264    0.030316    0.402375
O    -2.119528   -1.261147    0.181105    0.002549    0.007223    0.094845
O     0.546875    2.441156   -0.236102   -0.002840   -0.008446   -0.111641
H     2.230466   -1.753354   -0.087286   -0.012404   -0.035963   -0.476782
H    -0.000650   -2.562645   -0.011302   -0.015108   -0.044948   -0.598477
H    -1.576084    1.189112    0.097935    0.011218    0.032547    0.431549
H     2.616926    0.695463   -0.695106   -0.042952   -0.127182   -1.687344
12
* Frequency(15)  733.4137
C     1.629425    0.314162   -0.084919   -0.001547   -0.004151   -0.056245
C     1.419786   -1.009333    0.137923    0.006959    0.021161    0.278942
N     0.151942   -1.547604    0.108234   -0.000471   -0.001111   -0.013810
C    -1.015494   -0.785797   -0.016669   -0.007338   -0.021816   -0.289669
N    -0.758683    0.576448   -0.054462   -0.002082   -0.006734   -0.086861
C     0.494239    1.245914    0.034679    0.010264    0.030316    0.402375
O    -2.119503   -1.261078    0.182007    0.002549    0.007223    0.094845
O     0.546848    2.441076   -0.237165   -0.002840   -0.008446   -0.111641
H     2.230348   -1.753696   -0.091822   -0.012404   -0.035963   -0.476782
H    -0.000793   -2.563072   -0.016996   -0.015108   -0.044948   -0.598477
H    -1.575977    1.189421    0.102041    0.011218    0.032547    0.431549
H     2.616517    0.694253   -0.711160   -0.042952   -0.127182   -1.687344
12
* Frequency(15)  733.4137
C     1.629469    0.314279   -0.083328   -0.001547   -0.004151   -0.056245
C     1.419589   -1.009932    0.130034    0.006959    0.021161    0.278942
N     0.151955   -1.547573    0.108625   -0.000471   -0.001111   -0.013810
C    -1.015286   -0.785180   -0.008476   -0.007338   -0.021816   -0.289669
N    -0.758624    0.576639   -0.052006   -0.002082   -0.006734   -0.086861
C     0.493948    1.245057    0.023299    0.010264    0.030316    0.402375
O    -2.119576   -1.261283    0.179325    0.002549    0.007223    0.094845
O     0.546928    2.441315   -0.234007   -0.002840   -0.008446   -0.111641
H     2.230699   -1.752679   -0.078337   -0.012404   -0.035963   -0.476782
H    -0.000366   -2.561801   -0.000069   -0.015108   -0.044948   -0.598477
H    -1.576294    1.188501    0.089835    0.011218    0.032547    0.431549
H     2.617732    0.697850   -0.663436   -0.042952   -0.127182   -1.687344
12
* Frequency(15)  733.4137
C     1.629567    0.314541   -0.079784   -0.001547   -0.004151   -0.056245
C     1.419151   -1.011265    0.112456    0.006959    0.021161    0.278942
N     0.151985   -1.547503    0.109495   -0.000471   -0.001111   -0.013810
C    -1.014824   -0.783805    0.009779   -0.007338   -0.021816   -0.289669
N    -0.758493    0.577063   -0.046532   -0.002082   -0.006734   -0.086861
C     0.493302    1.243146   -0.002058    0.010264    0.030316    0.402375
O    -2.119736   -1.261738    0.173348    0.002549    0.007223    0.094845
O     0.547107    2.441847   -0.226972   -0.002840   -0.008446   -0.111641
H     2.231481   -1.750412   -0.048291   -0.012404   -0.035963   -0.476782
H     0.000586   -2.558969    0.037646   -0.015108   -0.044948   -0.598477
H    -1.577001    1.186450    0.062640    0.011218    0.032547    0.431549
H     2.620439    0.705864   -0.557104   -0.042952   -0.127182   -1.687344
12
* Frequency(15)  733.4137
C     1.629707    0.314918   -0.074670   -0.001547   -0.004151   -0.056245
C     1.418518   -1.013189    0.087094    0.006959    0.021161    0.278942
N     0.152028   -1.547402    0.110751   -0.000471   -0.001111   -0.013810
C    -1.014157   -0.781822    0.036116   -0.007338   -0.021816   -0.289669
N    -0.758304    0.577675   -0.038634   -0.002082   -0.006734   -0.086861
C     0.492368    1.240390   -0.038643    0.010264    0.030316    0.402375
O    -2.119968   -1.262395    0.164724    0.002549    0.007223    0.094845
O     0.547365    2.442615   -0.216821   -0.002840   -0.008446   -0.111641
H     2.232609   -1.747142   -0.004942   -0.012404   -0.035963   -0.476782
H     0.001960   -2.554882    0.092061   -0.015108   -0.044948   -0.598477
H    -1.578021    1.183490    0.023403    0.011218    0.032547    0.431549
H     2.624344    0.717428   -0.403688   -0.042952   -0.127182   -1.687344
12
* Frequency(15)  733.4137
C     1.629876    0.315371   -0.068541   -0.001547   -0.004151   -0.056245
C     1.417760   -1.015495    0.056696    0.006959    0.021161    0.278942
N     0.152079   -1.547281    0.112256   -0.000471   -0.001111   -0.013810
C    -1.013357   -0.779445    0.067682   -0.007338   -0.021816   -0.289669
N    -0.758077    0.578409   -0.029169   -0.002082   -0.006734   -0.086861
C     0.491250    1.237086   -0.082491    0.010264    0.030316    0.402375
O    -2.120246   -1.263182    0.154389    0.002549    0.007223    0.094845
O     0.547675    2.443535   -0.204655   -0.002840   -0.008446   -0.111641
H     2.233960   -1.743223    0.047015   -0.012404   -0.035963   -0.476782
H     0.003606   -2.549984    0.157279   -0.015108   -0.044948   -0.598477
H    -1.579244    1.179944   -0.023625    0.011218    0.032547    0.431549
H     2.629025    0.731288   -0.219812   -0.042952   -0.127182   -1.687344
12
* Frequency(15)  733.4137
C     1.630054    0.315849   -0.062061   -0.001547   -0.004151   -0.056245
C     1.416958   -1.017933    0.024558    0.006959    0.021161    0.278942
N     0.152133   -1.547153    0.113847   -0.000471   -0.001111   -0.013810
C    -1.012511   -0.776931    0.101057   -0.007338   -0.021816   -0.289669
N    -0.757837    0.579185   -0.019161   -0.002082   -0.006734   -0.086861
C     0.490067    1.233593   -0.128851    0.010264    0.030316    0.402375
O    -2.120540   -1.264014    0.143461    0.002549    0.007223    0.094845
O     0.548002    2.444509   -0.191792   -0.002840   -0.008446   -0.111641
H     2.235389   -1.739080    0.101948   -0.012404   -0.035963   -0.476782
H     0.005347   -2.544805    0.226233   -0.015108   -0.044948   -0.598477
H    -1.580536    1.176194   -0.073346    0.011218    0.032547    0.431549
H     2.633974    0.745941   -0.025403   -0.042952   -0.127182   -1.687344
12
* Frequency(15)  733.4137
C     1.630223    0.316302   -0.055932   -0.001547   -0.004151   -0.056245
C     1.416200   -1.020239   -0.005839    0.006959    0.021161    0.278942
N     0.152185   -1.547032    0.115352   -0.000471   -0.001111   -0.013810
C    -1.011712   -0.774554    0.132623   -0.007338   -0.021816   -0.289669
N    -0.757610    0.579919   -0.009695   -0.002082   -0.006734   -0.086861
C     0.488949    1.230290   -0.172699    0.010264    0.030316    0.402375
O    -2.120817   -1.264801    0.133125    0.002549    0.007223    0.094845
O     0.548311    2.445429   -0.179626   -0.002840   -0.008446   -0.111641
H     2.236741   -1.735161    0.153905   -0.012404   -0.035963   -0.476782
H     0.006993   -2.539907    0.291451   -0.015108   -0.044948   -0.598477
H    -1.581758    1.172647   -0.120374    0.011218    0.032547    0.431549
H     2.638654    0.759800    0.158473   -0.042952   -0.127182   -1.687344
12
* Frequency(15)  733.4137
C     1.630363    0.316679   -0.050818   -0.001547   -0.004151   -0.056245
C     1.415567   -1.022163   -0.031201    0.006959    0.021161    0.278942
N     0.152227   -1.546931    0.116608   -0.000471   -0.001111   -0.013810
C    -1.011045   -0.772570    0.158960   -0.007338   -0.021816   -0.289669
N    -0.757420    0.580531   -0.001798   -0.002082   -0.006734   -0.086861
C     0.488016    1.227534   -0.209284    0.010264    0.030316    0.402375
O    -2.121049   -1.265458    0.124502    0.002549    0.007223    0.094845
O     0.548570    2.446197   -0.169476   -0.002840   -0.008446   -0.111641
H     2.237869   -1.731891    0.197254   -0.012404   -0.035963   -0.476782
H     0.008367   -2.535820    0.345866   -0.015108   -0.044948   -0.598477
H    -1.582778    1.169688   -0.159611    0.011218    0.032547    0.431549
H     2.642560    0.771364    0.311889   -0.042952   -0.127182   -1.687344
12
* Frequency(15)  733.4137
C     1.630461    0.316941   -0.047273   -0.001547   -0.004151   -0.056245
C     1.415129   -1.023497   -0.048780    0.006959    0.021161    0.278942
N     0.152257   -1.546861    0.117478   -0.000471   -0.001111   -0.013810
C    -1.010582   -0.771195    0.177214   -0.007338   -0.021816   -0.289669
N    -0.757289    0.580955    0.003676   -0.002082   -0.006734   -0.086861
C     0.487369    1.225623   -0.234640    0.010264    0.030316    0.402375
O    -2.121210   -1.265913    0.118525    0.002549    0.007223    0.094845
O     0.548749    2.446729   -0.162440   -0.002840   -0.008446   -0.111641
H     2.238651   -1.729625    0.227300   -0.012404   -0.035963   -0.476782
H     0.009319   -2.532988    0.383580   -0.015108   -0.044948   -0.598477
H    -1.583485    1.167636   -0.186806    0.011218    0.032547    0.431549
H     2.645266    0.779379    0.418221   -0.042952   -0.127182   -1.687344
12
* Frequency(15)  733.4137
C     1.630505    0.317058   -0.045683   -0.001547   -0.004151   -0.056245
C     1.414932   -1.024095   -0.056669    0.006959    0.021161    0.278942
N     0.152270   -1.546830    0.117868   -0.000471   -0.001111   -0.013810
C    -1.010375   -0.770578    0.185407   -0.007338   -0.021816   -0.289669
N    -0.757230    0.581146    0.006133   -0.002082   -0.006734   -0.086861
C     0.487079    1.224766   -0.246021    0.010264    0.030316    0.402375
O    -2.121282   -1.266117    0.115843    0.002549    0.007223    0.094845
O     0.548829    2.446968   -0.159283   -0.002840   -0.008446   -0.111641
H     2.239001   -1.728607    0.240785   -0.012404   -0.035963   -0.476782
H     0.009746   -2.531716    0.400507   -0.015108   -0.044948   -0.598477
H    -1.583803    1.166716   -0.199012    0.011218    0.032547    0.431549
H     2.646481    0.782976    0.465946   -0.042952   -0.127182   -1.687344
12
* Frequency(15)  733.4137
C     1.630490    0.317019   -0.046218   -0.001547   -0.004151   -0.056245
C     1.414998   -1.023894   -0.054015    0.006959    0.021161    0.278942
N     0.152266   -1.546840    0.117737   -0.000471   -0.001111   -0.013810
C    -1.010444   -0.770786    0.182651   -0.007338   -0.021816   -0.289669
N    -0.757250    0.581082    0.005306   -0.002082   -0.006734   -0.086861
C     0.487176    1.225054   -0.242193    0.010264    0.030316    0.402375
O    -2.121258   -1.266049    0.116745    0.002549    0.007223    0.094845
O     0.548802    2.446888   -0.160345   -0.002840   -0.008446   -0.111641
H     2.238883   -1.728950    0.236249   -0.012404   -0.035963   -0.476782
H     0.009602   -2.532144    0.394813   -0.015108   -0.044948   -0.598477
H    -1.583696    1.167026   -0.194906    0.011218    0.032547    0.431549
H     2.646072    0.781766    0.449892   -0.042952   -0.127182   -1.687344
12
* Frequency(15)  733.4137
C     1.630418    0.316826   -0.048821   -0.001547   -0.004151   -0.056245
C     1.415320   -1.022914   -0.041105    0.006959    0.021161    0.278942
N     0.152244   -1.546892    0.117098   -0.000471   -0.001111   -0.013810
C    -1.010784   -0.771796    0.169245   -0.007338   -0.021816   -0.289669
N    -0.757347    0.580770    0.001286   -0.002082   -0.006734   -0.086861
C     0.487651    1.226457   -0.223570    0.010264    0.030316    0.402375
O    -2.121140   -1.265714    0.121134    0.002549    0.007223    0.094845
O     0.548671    2.446497   -0.165512   -0.002840   -0.008446   -0.111641
H     2.238309   -1.730614    0.214183   -0.012404   -0.035963   -0.476782
H     0.008903   -2.534224    0.367115   -0.015108   -0.044948   -0.598477
H    -1.583177    1.168532   -0.174933    0.011218    0.032547    0.431549
H     2.644085    0.775880    0.371798   -0.042952   -0.127182   -1.687344
12
* Frequency(15)  733.4137
C     1.630298    0.316502   -0.053210   -0.001547   -0.004151   -0.056245
C     1.415863   -1.021263   -0.019338    0.006959    0.021161    0.278942
N     0.152207   -1.546978    0.116020   -0.000471   -0.001111   -0.013810
C    -1.011357   -0.773498    0.146641   -0.007338   -0.021816   -0.289669
N    -0.757509    0.580245   -0.005492   -0.002082   -0.006734   -0.086861
C     0.488452    1.228823   -0.192171    0.010264    0.030316    0.402375
O    -2.120941   -1.265151    0.128536    0.002549    0.007223    0.094845
O     0.548449    2.445838   -0.174224   -0.002840   -0.008446   -0.111641
H     2.237341   -1.733420    0.176977   -0.012404   -0.035963   -0.476782
H     0.007724   -2.537732    0.320413   -0.015108   -0.044948   -0.598477
H    -1.582301    1.171072   -0.141258    0.011218    0.032547    0.431549
H     2.640733    0.765955    0.240129   -0.042952   -0.127182   -1.687344
12
* Frequency(15)  733.4137
C     1.630141    0.316082   -0.058909   -0.001547   -0.004151   -0.056245
C     1.416568   -1.019119    0.008927    0.006959    0.021161    0.278942
N     0.152160   -1.547091    0.114621   -0.000471   -0.001111   -0.013810
C    -1.012100   -0.775709    0.117289   -0.007338   -0.021816   -0.289669
N    -0.757720    0.579562   -0.014293   -0.002082   -0.006734   -0.086861
C     0.489492    1.231895   -0.151399    0.010264    0.030316    0.402375
O    -2.120682   -1.264419    0.138146    0.002549    0.007223    0.094845
O     0.548161    2.444982   -0.185536   -0.002840   -0.008446   -0.111641
H     2.236085   -1.737065    0.128665   -0.012404   -0.035963   -0.476782
H     0.006193   -2.542286    0.259770   -0.015108   -0.044948   -0.598477
H    -1.581165    1.174370   -0.097529    0.011218    0.032547    0.431549
H     2.636380    0.753068    0.069151   -0.042952   -0.127182   -1.687344
12
* Frequency(15)  733.4137
C     1.629965    0.315610   -0.065301   -0.001547   -0.004151   -0.056245
C     1.417359   -1.016714    0.040627    0.006959    0.021161    0.278942
N     0.152106   -1.547217    0.113051   -0.000471   -0.001111   -0.013810
C    -1.012934   -0.778188    0.084369   -0.007338   -0.021816   -0.289669
N    -0.757957    0.578797   -0.024165   -0.002082   -0.006734   -0.086861
C     0.490659    1.235340   -0.105671    0.010264    0.030316    0.402375
O    -2.120393   -1.263598    0.148925    0.002549    0.007223    0.094845
O     0.547838    2.444022   -0.198224   -0.002840   -0.008446   -0.111641
H     2.234675   -1.741152    0.074482   -0.012404   -0.035963   -0.476782
H     0.004476   -2.547394    0.191756   -0.015108   -0.044948   -0.598477
H    -1.579890    1.178069   -0.048486    0.011218    0.032547    0.431549
H     2.631499    0.738614   -0.122607   -0.042952   -0.127182   -1.687344
