12
* (null), Energy   -1000.0000000
C     1.629965    0.315610   -0.065301   -0.340722    0.332975   -0.016552
C     1.417359   -1.016714    0.040627   -0.830982    0.573610   -0.023878
N     0.152106   -1.547217    0.113051   -0.319978    0.114387    0.002104
C    -1.012934   -0.778188    0.084369    0.357277    0.114407   -0.025482
N    -0.757957    0.578797   -0.024165    0.425793   -0.228506    0.009616
C     0.490659    1.235340   -0.105671    0.019477   -0.394087    0.028185
O    -2.120393   -1.263598    0.148925    0.508417    0.092679   -0.017405
O     0.547838    2.444022   -0.198224    0.044562   -0.518213    0.038250
H     2.234675   -1.741152    0.074482   -0.739525    0.735775   -0.032018
H     0.004476   -2.547394    0.191756   -0.235579    0.115728   -0.004232
H    -1.579890    1.178069   -0.048486    0.507194   -0.158589   -0.011736
H     2.631499    0.738614   -0.122607   -0.307009    0.176968    0.003833
12
* Frequency(16)  774.9451
C     1.591244    0.353451   -0.067182   -0.340722    0.332975   -0.016552
C     1.322922   -0.951526    0.037913   -0.830982    0.573610   -0.023878
N     0.115742   -1.534218    0.113290   -0.319978    0.114387    0.002104
C    -0.972331   -0.765186    0.081473    0.357277    0.114407   -0.025482
N    -0.709568    0.552828   -0.023072    0.425793   -0.228506    0.009616
C     0.492872    1.190554   -0.102468    0.019477   -0.394087    0.028185
O    -2.062614   -1.253065    0.146947    0.508417    0.092679   -0.017405
O     0.552903    2.385130   -0.193877    0.044562   -0.518213    0.038250
H     2.150632   -1.657535    0.070843   -0.739525    0.735775   -0.032018
H    -0.022296   -2.534242    0.191275   -0.235579    0.115728   -0.004232
H    -1.522250    1.160046   -0.049819    0.507194   -0.158589   -0.011736
H     2.596609    0.758726   -0.122172   -0.307009    0.176968    0.003833
12
* Frequency(16)  774.9451
C     1.556719    0.387191   -0.068859   -0.340722    0.332975   -0.016552
C     1.238719   -0.893403    0.035494   -0.830982    0.573610   -0.023878
N     0.083319   -1.522627    0.113504   -0.319978    0.114387    0.002104
C    -0.936129   -0.753593    0.078891    0.357277    0.114407   -0.025482
N    -0.666422    0.529674   -0.022098    0.425793   -0.228506    0.009616
C     0.494846    1.150621   -0.099612    0.019477   -0.394087    0.028185
O    -2.011096   -1.243674    0.145183    0.508417    0.092679   -0.017405
O     0.557418    2.332620   -0.190001    0.044562   -0.518213    0.038250
H     2.075696   -1.582979    0.067598   -0.739525    0.735775   -0.032018
H    -0.046167   -2.522516    0.190846   -0.235579    0.115728   -0.004232
H    -1.470856    1.143976   -0.051008    0.507194   -0.158589   -0.011736
H     2.565500    0.776658   -0.121783   -0.307009    0.176968    0.003833
12
* Frequency(16)  774.9451
C     1.530131    0.413174   -0.070151   -0.340722    0.332975   -0.016552
C     1.173875   -0.848642    0.033631   -0.830982    0.573610   -0.023878
N     0.058350   -1.513701    0.113668   -0.319978    0.114387    0.002104
C    -0.908249   -0.744666    0.076903    0.357277    0.114407   -0.025482
N    -0.633196    0.511843   -0.021347    0.425793   -0.228506    0.009616
C     0.496365    1.119869   -0.097412    0.019477   -0.394087    0.028185
O    -1.971422   -1.236442    0.143825    0.508417    0.092679   -0.017405
O     0.560896    2.292181   -0.187016    0.044562   -0.518213    0.038250
H     2.017988   -1.525564    0.065100   -0.739525    0.735775   -0.032018
H    -0.064550   -2.513485    0.190516   -0.235579    0.115728   -0.004232
H    -1.431278    1.131601   -0.051924    0.507194   -0.158589   -0.011736
H     2.541543    0.790467   -0.121484   -0.307009    0.176968    0.003833
12
* Frequency(16)  774.9451
C     1.514362    0.428585   -0.070917   -0.340722    0.332975   -0.016552
C     1.135415   -0.822094    0.032526   -0.830982    0.573610   -0.023878
N     0.043541   -1.508407    0.113765   -0.319978    0.114387    0.002104
C    -0.891714   -0.739371    0.075724    0.357277    0.114407   -0.025482
N    -0.613489    0.501267   -0.020902    0.425793   -0.228506    0.009616
C     0.497267    1.101630   -0.096108    0.019477   -0.394087    0.028185
O    -1.947892   -1.232153    0.143019    0.508417    0.092679   -0.017405
O     0.562958    2.268198   -0.185246    0.044562   -0.518213    0.038250
H     1.983761   -1.491511    0.063618   -0.739525    0.735775   -0.032018
H    -0.075453   -2.508129    0.190320   -0.235579    0.115728   -0.004232
H    -1.407804    1.124261   -0.052467    0.507194   -0.158589   -0.011736
H     2.527334    0.798658   -0.121307   -0.307009    0.176968    0.003833
12
* Frequency(16)  774.9451
C     1.511120    0.431753   -0.071074   -0.340722    0.332975   -0.016552
C     1.127509   -0.816637    0.032298   -0.830982    0.573610   -0.023878
N     0.040497   -1.507318    0.113785   -0.319978    0.114387    0.002104
C    -0.888314   -0.738282    0.075481    0.357277    0.114407   -0.025482
N    -0.609438    0.499093   -0.020811    0.425793   -0.228506    0.009616
C     0.497452    1.097881   -0.095840    0.019477   -0.394087    0.028185
O    -1.943055   -1.231271    0.142854    0.508417    0.092679   -0.017405
O     0.563382    2.263267   -0.184882    0.044562   -0.518213    0.038250
H     1.976725   -1.484510    0.063313   -0.739525    0.735775   -0.032018
H    -0.077695   -2.507028    0.190280   -0.235579    0.115728   -0.004232
H    -1.402978    1.122752   -0.052579    0.507194   -0.158589   -0.011736
H     2.524413    0.800341   -0.121270   -0.307009    0.176968    0.003833
12
* Frequency(16)  774.9451
C     1.520757    0.422335   -0.070606   -0.340722    0.332975   -0.016552
C     1.151012   -0.832860    0.032974   -0.830982    0.573610   -0.023878
N     0.049547   -1.510554    0.113726   -0.319978    0.114387    0.002104
C    -0.898419   -0.741518    0.076202    0.357277    0.114407   -0.025482
N    -0.621481    0.505556   -0.021083    0.425793   -0.228506    0.009616
C     0.496901    1.109027   -0.096637    0.019477   -0.394087    0.028185
O    -1.957435   -1.233892    0.143346    0.508417    0.092679   -0.017405
O     0.562122    2.277924   -0.185964    0.044562   -0.518213    0.038250
H     1.997642   -1.505321    0.064219   -0.739525    0.735775   -0.032018
H    -0.071032   -2.510301    0.190399   -0.235579    0.115728   -0.004232
H    -1.417323    1.127238   -0.052247    0.507194   -0.158589   -0.011736
H     2.533097    0.795336   -0.121379   -0.307009    0.176968    0.003833
12
* Frequency(16)  774.9451
C     1.542228    0.401352   -0.069563   -0.340722    0.332975   -0.016552
C     1.203378   -0.869008    0.034478   -0.830982    0.573610   -0.023878
N     0.069711   -1.517762    0.113593   -0.319978    0.114387    0.002104
C    -0.920934   -0.748728    0.077808    0.357277    0.114407   -0.025482
N    -0.648314    0.519956   -0.021689    0.425793   -0.228506    0.009616
C     0.495674    1.133861   -0.098413    0.019477   -0.394087    0.028185
O    -1.989474   -1.239733    0.144443    0.508417    0.092679   -0.017405
O     0.559313    2.310581   -0.188374    0.044562   -0.518213    0.038250
H     2.044245   -1.551687    0.066237   -0.739525    0.735775   -0.032018
H    -0.056186   -2.517594    0.190666   -0.235579    0.115728   -0.004232
H    -1.449285    1.137231   -0.051508    0.507194   -0.158589   -0.011736
H     2.552443    0.784184   -0.121620   -0.307009    0.176968    0.003833
12
* Frequency(16)  774.9451
C     1.573207    0.371077   -0.068058   -0.340722    0.332975   -0.016552
C     1.278933   -0.921161    0.036649   -0.830982    0.573610   -0.023878
N     0.098804   -1.528162    0.113402   -0.319978    0.114387    0.002104
C    -0.953418   -0.759130    0.080125    0.357277    0.114407   -0.025482
N    -0.687027    0.540732   -0.022563    0.425793   -0.228506    0.009616
C     0.493903    1.169692   -0.100976    0.019477   -0.394087    0.028185
O    -2.035700   -1.248159    0.146025    0.508417    0.092679   -0.017405
O     0.555262    2.357697   -0.191852    0.044562   -0.518213    0.038250
H     2.111484   -1.618585    0.069148   -0.739525    0.735775   -0.032018
H    -0.034767   -2.528116    0.191051   -0.235579    0.115728   -0.004232
H    -1.495401    1.151651   -0.050441    0.507194   -0.158589   -0.011736
H     2.580357    0.768094   -0.121969   -0.307009    0.176968    0.003833
12
* Frequency(16)  774.9451
C     1.610337    0.334792   -0.066254   -0.340722    0.332975   -0.016552
C     1.369488   -0.983670    0.039252   -0.830982    0.573610   -0.023878
N     0.133673   -1.540627    0.113173   -0.319978    0.114387    0.002104
C    -0.992352   -0.771597    0.082901    0.357277    0.114407   -0.025482
N    -0.733428    0.565633   -0.023611    0.425793   -0.228506    0.009616
C     0.491781    1.212637   -0.104047    0.019477   -0.394087    0.028185
O    -2.091104   -1.258259    0.147922    0.508417    0.092679   -0.017405
O     0.550406    2.414169   -0.196020    0.044562   -0.518213    0.038250
H     2.192072   -1.698765    0.072637   -0.739525    0.735775   -0.032018
H    -0.009095   -2.540727    0.191512   -0.235579    0.115728   -0.004232
H    -1.550671    1.168933   -0.049162    0.507194   -0.158589   -0.011736
H     2.613813    0.748809   -0.122386   -0.307009    0.176968    0.003833
12
* Frequency(16)  774.9451
C     1.649593    0.296428   -0.064347   -0.340722    0.332975   -0.016552
C     1.465230   -1.049759    0.042003   -0.830982    0.573610   -0.023878
N     0.170539   -1.553807    0.112930   -0.319978    0.114387    0.002104
C    -1.033516   -0.784779    0.085837    0.357277    0.114407   -0.025482
N    -0.782486    0.591961   -0.024719    0.425793   -0.228506    0.009616
C     0.489537    1.258042   -0.107294    0.019477   -0.394087    0.028185
O    -2.149682   -1.268937    0.149928    0.508417    0.092679   -0.017405
O     0.545271    2.473875   -0.200427    0.044562   -0.518213    0.038250
H     2.277278   -1.783538    0.076326   -0.739525    0.735775   -0.032018
H     0.018048   -2.554061    0.192000   -0.235579    0.115728   -0.004232
H    -1.609108    1.187205   -0.047809    0.507194   -0.158589   -0.011736
H     2.649185    0.728419   -0.122828   -0.307009    0.176968    0.003833
12
* Frequency(16)  774.9451
C     1.686723    0.260143   -0.062544   -0.340722    0.332975   -0.016552
C     1.555785   -1.112267    0.044605   -0.830982    0.573610   -0.023878
N     0.205409   -1.566272    0.112701   -0.319978    0.114387    0.002104
C    -1.072450   -0.797246    0.088614    0.357277    0.114407   -0.025482
N    -0.828886    0.616862   -0.025767    0.425793   -0.228506    0.009616
C     0.487414    1.300988   -0.110366    0.019477   -0.394087    0.028185
O    -2.205086   -1.279036    0.151824    0.508417    0.092679   -0.017405
O     0.540415    2.530347   -0.204595    0.044562   -0.518213    0.038250
H     2.357866   -1.863718    0.079815   -0.739525    0.735775   -0.032018
H     0.043720   -2.566672    0.192461   -0.235579    0.115728   -0.004232
H    -1.664379    1.204487   -0.046530    0.507194   -0.158589   -0.011736
H     2.682641    0.709135   -0.123246   -0.307009    0.176968    0.003833
12
* Frequency(16)  774.9451
C     1.717702    0.229868   -0.061039   -0.340722    0.332975   -0.016552
C     1.631340   -1.164421    0.046776   -0.830982    0.573610   -0.023878
N     0.234501   -1.576672    0.112510   -0.319978    0.114387    0.002104
C    -1.104934   -0.807648    0.090931    0.357277    0.114407   -0.025482
N    -0.867600    0.637638   -0.026641    0.425793   -0.228506    0.009616
C     0.485643    1.336819   -0.112928    0.019477   -0.394087    0.028185
O    -2.251312   -1.287463    0.153407    0.508417    0.092679   -0.017405
O     0.536364    2.577464   -0.208073    0.044562   -0.518213    0.038250
H     2.425105   -1.930616    0.082726   -0.739525    0.735775   -0.032018
H     0.065139   -2.577195    0.192846   -0.235579    0.115728   -0.004232
H    -1.710494    1.218906   -0.045463    0.507194   -0.158589   -0.011736
H     2.710555    0.693044   -0.123594   -0.307009    0.176968    0.003833
12
* Frequency(16)  774.9451
C     1.739173    0.208885   -0.059996   -0.340722    0.332975   -0.016552
C     1.683706   -1.200568    0.048280   -0.830982    0.573610   -0.023878
N     0.254666   -1.583880    0.112377   -0.319978    0.114387    0.002104
C    -1.127449   -0.814857    0.092537    0.357277    0.114407   -0.025482
N    -0.894432    0.652038   -0.027247    0.425793   -0.228506    0.009616
C     0.484416    1.361653   -0.114705    0.019477   -0.394087    0.028185
O    -2.283351   -1.293303    0.154504    0.508417    0.092679   -0.017405
O     0.533555    2.610120   -0.210484    0.044562   -0.518213    0.038250
H     2.471708   -1.976983    0.084744   -0.739525    0.735775   -0.032018
H     0.079984   -2.584487    0.193112   -0.235579    0.115728   -0.004232
H    -1.742456    1.228900   -0.044724    0.507194   -0.158589   -0.011736
H     2.729902    0.681892   -0.123836   -0.307009    0.176968    0.003833
12
* Frequency(16)  774.9451
C     1.748810    0.199467   -0.059527   -0.340722    0.332975   -0.016552
C     1.707209   -1.216792    0.048956   -0.830982    0.573610   -0.023878
N     0.263716   -1.587116    0.112318   -0.319978    0.114387    0.002104
C    -1.137554   -0.818093    0.093258    0.357277    0.114407   -0.025482
N    -0.906475    0.658501   -0.027519    0.425793   -0.228506    0.009616
C     0.483865    1.372799   -0.115502    0.019477   -0.394087    0.028185
O    -2.297731   -1.295925    0.154996    0.508417    0.092679   -0.017405
O     0.532295    2.624777   -0.211565    0.044562   -0.518213    0.038250
H     2.492625   -1.997793    0.085650   -0.739525    0.735775   -0.032018
H     0.086648   -2.587761    0.193232   -0.235579    0.115728   -0.004232
H    -1.756801    1.233385   -0.044392    0.507194   -0.158589   -0.011736
H     2.738585    0.676887   -0.123944   -0.307009    0.176968    0.003833
12
* Frequency(16)  774.9451
C     1.745568    0.202635   -0.059685   -0.340722    0.332975   -0.016552
C     1.699303   -1.211334    0.048729   -0.830982    0.573610   -0.023878
N     0.260671   -1.586027    0.112338   -0.319978    0.114387    0.002104
C    -1.134155   -0.817005    0.093015    0.357277    0.114407   -0.025482
N    -0.902424    0.656327   -0.027427    0.425793   -0.228506    0.009616
C     0.484050    1.369050   -0.115234    0.019477   -0.394087    0.028185
O    -2.292893   -1.295043    0.154830    0.508417    0.092679   -0.017405
O     0.532719    2.619846   -0.211202    0.044562   -0.518213    0.038250
H     2.485588   -1.990793    0.085345   -0.739525    0.735775   -0.032018
H     0.084406   -2.586660    0.193192   -0.235579    0.115728   -0.004232
H    -1.751976    1.231876   -0.044504    0.507194   -0.158589   -0.011736
H     2.735664    0.678571   -0.123908   -0.307009    0.176968    0.003833
12
* Frequency(16)  774.9451
C     1.729799    0.218046   -0.060451   -0.340722    0.332975   -0.016552
C     1.660844   -1.184787    0.047624   -0.830982    0.573610   -0.023878
N     0.245862   -1.580733    0.112435   -0.319978    0.114387    0.002104
C    -1.117619   -0.811710    0.091836    0.357277    0.114407   -0.025482
N    -0.882717    0.645751   -0.026982    0.425793   -0.228506    0.009616
C     0.484952    1.350811   -0.113929    0.019477   -0.394087    0.028185
O    -2.269363   -1.290753    0.154025    0.508417    0.092679   -0.017405
O     0.534781    2.595863   -0.209431    0.044562   -0.518213    0.038250
H     2.451362   -1.956740    0.083863   -0.739525    0.735775   -0.032018
H     0.073503   -2.581303    0.192996   -0.235579    0.115728   -0.004232
H    -1.728502    1.224536   -0.045047    0.507194   -0.158589   -0.011736
H     2.721455    0.686761   -0.123730   -0.307009    0.176968    0.003833
12
* Frequency(16)  774.9451
C     1.703211    0.244029   -0.061743   -0.340722    0.332975   -0.016552
C     1.595999   -1.140026    0.045760   -0.830982    0.573610   -0.023878
N     0.220893   -1.571807    0.112599   -0.319978    0.114387    0.002104
C    -1.089740   -0.802782    0.089847    0.357277    0.114407   -0.025482
N    -0.849491    0.627920   -0.026232    0.425793   -0.228506    0.009616
C     0.486472    1.320059   -0.111730    0.019477   -0.394087    0.028185
O    -2.229689   -1.283521    0.152667    0.508417    0.092679   -0.017405
O     0.538259    2.555425   -0.206446    0.044562   -0.518213    0.038250
H     2.393654   -1.899324    0.081365   -0.739525    0.735775   -0.032018
H     0.055120   -2.572273    0.192666   -0.235579    0.115728   -0.004232
H    -1.688924    1.212161   -0.045963    0.507194   -0.158589   -0.011736
H     2.697498    0.700571   -0.123431   -0.307009    0.176968    0.003833
12
* Frequency(16)  774.9451
C     1.668686    0.277769   -0.063420   -0.340722    0.332975   -0.016552
C     1.511796   -1.081902    0.043341   -0.830982    0.573610   -0.023878
N     0.188470   -1.560216    0.112812   -0.319978    0.114387    0.002104
C    -1.053537   -0.791190    0.087265    0.357277    0.114407   -0.025482
N    -0.806346    0.604765   -0.025258    0.425793   -0.228506    0.009616
C     0.488445    1.280126   -0.108874    0.019477   -0.394087    0.028185
O    -2.178172   -1.274130    0.150903    0.508417    0.092679   -0.017405
O     0.542774    2.502914   -0.202571    0.044562   -0.518213    0.038250
H     2.318718   -1.824769    0.078120   -0.739525    0.735775   -0.032018
H     0.031249   -2.560546    0.192237   -0.235579    0.115728   -0.004232
H    -1.637530    1.196091   -0.047152    0.507194   -0.158589   -0.011736
H     2.666389    0.718503   -0.123043   -0.307009    0.176968    0.003833
12
* Frequency(16)  774.9451
C     1.629965    0.315610   -0.065301   -0.340722    0.332975   -0.016552
C     1.417359   -1.016714    0.040627   -0.830982    0.573610   -0.023878
N     0.152106   -1.547217    0.113051   -0.319978    0.114387    0.002104
C    -1.012934   -0.778188    0.084369    0.357277    0.114407   -0.025482
N    -0.757957    0.578797   -0.024165    0.425793   -0.228506    0.009616
C     0.490659    1.235340   -0.105671    0.019477   -0.394087    0.028185
O    -2.120393   -1.263598    0.148925    0.508417    0.092679   -0.017405
O     0.547838    2.444022   -0.198224    0.044562   -0.518213    0.038250
H     2.234675   -1.741152    0.074482   -0.739525    0.735775   -0.032018
H     0.004476   -2.547394    0.191756   -0.235579    0.115728   -0.004232
H    -1.579890    1.178069   -0.048486    0.507194   -0.158589   -0.011736
H     2.631499    0.738614   -0.122607   -0.307009    0.176968    0.003833
