12
* (null), Energy   -1000.0000000
C     1.629965    0.315610   -0.065301    0.285449   -0.080719   -0.000750
C     1.417359   -1.016714    0.040627    0.143056   -0.136011    0.006404
N     0.152106   -1.547217    0.113051    0.130751   -0.352575    0.023340
C    -1.012934   -0.778188    0.084369    0.238776   -0.082239    0.000407
N    -0.757957    0.578797   -0.024165    0.563404   -0.347404    0.011587
C     0.490659    1.235340   -0.105671    0.135457   -0.105743    0.004543
O    -2.120393   -1.263598    0.148925   -0.232808    1.026489   -0.071417
O     0.547838    2.444022   -0.198224   -1.066714   -0.039287    0.029940
H     2.234675   -1.741152    0.074482    0.181821   -0.097853    0.002073
H     0.004476   -2.547394    0.191756    0.275467   -0.376150    0.020526
H    -1.579890    1.178069   -0.048486    0.572022   -0.345416    0.010537
H     2.631499    0.738614   -0.122607    0.385701   -0.300272    0.013504
12
* Frequency(8)  393.2790
C     1.662405    0.306437   -0.065386    0.285449   -0.080719   -0.000750
C     1.433617   -1.032171    0.041355    0.143056   -0.136011    0.006404
N     0.166965   -1.587285    0.115704    0.130751   -0.352575    0.023340
C    -0.985799   -0.787534    0.084416    0.238776   -0.082239    0.000407
N    -0.693929    0.539316   -0.022848    0.563404   -0.347404    0.011587
C     0.506053    1.223323   -0.105155    0.135457   -0.105743    0.004543
O    -2.146850   -1.146943    0.140809   -0.232808    1.026489   -0.071417
O     0.426612    2.439557   -0.194821   -1.066714   -0.039287    0.029940
H     2.255338   -1.752272    0.074717    0.181821   -0.097853    0.002073
H     0.035782   -2.590142    0.194088    0.275467   -0.376150    0.020526
H    -1.514882    1.138814   -0.047288    0.572022   -0.345416    0.010537
H     2.675332    0.704490   -0.121073    0.385701   -0.300272    0.013504
12
* Frequency(8)  393.2790
C     1.691329    0.298257   -0.065462    0.285449   -0.080719   -0.000750
C     1.448112   -1.045953    0.042004    0.143056   -0.136011    0.006404
N     0.180214   -1.623012    0.118069    0.130751   -0.352575    0.023340
C    -0.961603   -0.795867    0.084457    0.238776   -0.082239    0.000407
N    -0.636839    0.504114   -0.021674    0.563404   -0.347404    0.011587
C     0.519778    1.212608   -0.104694    0.135457   -0.105743    0.004543
O    -2.170440   -1.042929    0.133572   -0.232808    1.026489   -0.071417
O     0.318522    2.435576   -0.191787   -1.066714   -0.039287    0.029940
H     2.273762   -1.762187    0.074927    0.181821   -0.097853    0.002073
H     0.063695   -2.628257    0.196168    0.275467   -0.376150    0.020526
H    -1.456920    1.103813   -0.046220    0.572022   -0.345416    0.010537
H     2.714415    0.674063   -0.119704    0.385701   -0.300272    0.013504
12
* Frequency(8)  393.2790
C     1.713604    0.291959   -0.065521    0.285449   -0.080719   -0.000750
C     1.459276   -1.056566    0.042503    0.143056   -0.136011    0.006404
N     0.190417   -1.650524    0.119890    0.130751   -0.352575    0.023340
C    -0.942971   -0.802284    0.084489    0.238776   -0.082239    0.000407
N    -0.592875    0.477005   -0.020770    0.563404   -0.347404    0.011587
C     0.530349    1.204356   -0.104340    0.135457   -0.105743    0.004543
O    -2.188607   -0.962828    0.127999   -0.232808    1.026489   -0.071417
O     0.235282    2.432511   -0.189451   -1.066714   -0.039287    0.029940
H     2.287950   -1.769823    0.075089    0.181821   -0.097853    0.002073
H     0.085190   -2.657609    0.197770    0.275467   -0.376150    0.020526
H    -1.412283    1.076859   -0.045398    0.572022   -0.345416    0.010537
H     2.744513    0.650632   -0.118651    0.385701   -0.300272    0.013504
12
* Frequency(8)  393.2790
C     1.726815    0.288223   -0.065555    0.285449   -0.080719   -0.000750
C     1.465897   -1.062861    0.042800    0.143056   -0.136011    0.006404
N     0.196469   -1.666842    0.120970    0.130751   -0.352575    0.023340
C    -0.931920   -0.806091    0.084508    0.238776   -0.082239    0.000407
N    -0.566799    0.460926   -0.020234    0.563404   -0.347404    0.011587
C     0.536618    1.199462   -0.104130    0.135457   -0.105743    0.004543
O    -2.199382   -0.915320    0.124694   -0.232808    1.026489   -0.071417
O     0.185913    2.430692   -0.188065   -1.066714   -0.039287    0.029940
H     2.296365   -1.774352    0.075185    0.181821   -0.097853    0.002073
H     0.097940   -2.675018    0.198720    0.275467   -0.376150    0.020526
H    -1.385809    1.060872   -0.044910    0.572022   -0.345416    0.010537
H     2.762364    0.636735   -0.118026    0.385701   -0.300272    0.013504
12
* Frequency(8)  393.2790
C     1.729531    0.287455   -0.065563    0.285449   -0.080719   -0.000750
C     1.467258   -1.064155    0.042861    0.143056   -0.136011    0.006404
N     0.197713   -1.670197    0.121192    0.130751   -0.352575    0.023340
C    -0.929648   -0.806873    0.084511    0.238776   -0.082239    0.000407
N    -0.561439    0.457621   -0.020123    0.563404   -0.347404    0.011587
C     0.537907    1.198456   -0.104086    0.135457   -0.105743    0.004543
O    -2.201597   -0.905554    0.124014   -0.232808    1.026489   -0.071417
O     0.175764    2.430319   -0.187780   -1.066714   -0.039287    0.029940
H     2.298095   -1.775283    0.075205    0.181821   -0.097853    0.002073
H     0.100561   -2.678597    0.198915    0.275467   -0.376150    0.020526
H    -1.380366    1.057586   -0.044810    0.572022   -0.345416    0.010537
H     2.766033    0.633878   -0.117897    0.385701   -0.300272    0.013504
12
* Frequency(8)  393.2790
C     1.721457    0.289738   -0.065541    0.285449   -0.080719   -0.000750
C     1.463212   -1.060308    0.042680    0.143056   -0.136011    0.006404
N     0.194015   -1.660225    0.120532    0.130751   -0.352575    0.023340
C    -0.936402   -0.804547    0.084500    0.238776   -0.082239    0.000407
N    -0.577374    0.467447   -0.020451    0.563404   -0.347404    0.011587
C     0.534075    1.201447   -0.104215    0.135457   -0.105743    0.004543
O    -2.195012   -0.934587    0.126034   -0.232808    1.026489   -0.071417
O     0.205935    2.431430   -0.188627   -1.066714   -0.039287    0.029940
H     2.292952   -1.772515    0.075146    0.181821   -0.097853    0.002073
H     0.092769   -2.667958    0.198335    0.275467   -0.376150    0.020526
H    -1.396545    1.067355   -0.045108    0.572022   -0.345416    0.010537
H     2.755124    0.642371   -0.118279    0.385701   -0.300272    0.013504
12
* Frequency(8)  393.2790
C     1.703469    0.294825   -0.065494    0.285449   -0.080719   -0.000750
C     1.454196   -1.051737    0.042276    0.143056   -0.136011    0.006404
N     0.185775   -1.638006    0.119061    0.130751   -0.352575    0.023340
C    -0.951449   -0.799365    0.084474    0.238776   -0.082239    0.000407
N    -0.612878    0.489339   -0.021181    0.563404   -0.347404    0.011587
C     0.525539    1.208111   -0.104501    0.135457   -0.105743    0.004543
O    -2.180342   -0.999273    0.130535   -0.232808    1.026489   -0.071417
O     0.273156    2.433906   -0.190514   -1.066714   -0.039287    0.029940
H     2.281494   -1.766349    0.075015    0.181821   -0.097853    0.002073
H     0.075410   -2.644254    0.197041    0.275467   -0.376150    0.020526
H    -1.432592    1.089123   -0.045772    0.572022   -0.345416    0.010537
H     2.730818    0.661293   -0.119130    0.385701   -0.300272    0.013504
12
* Frequency(8)  393.2790
C     1.677516    0.302164   -0.065426    0.285449   -0.080719   -0.000750
C     1.441190   -1.039371    0.041694    0.143056   -0.136011    0.006404
N     0.173887   -1.605949    0.116939    0.130751   -0.352575    0.023340
C    -0.973159   -0.791887    0.084437    0.238776   -0.082239    0.000407
N    -0.664104    0.520926   -0.022235    0.563404   -0.347404    0.011587
C     0.513223    1.217725   -0.104914    0.135457   -0.105743    0.004543
O    -2.159174   -1.092604    0.137028   -0.232808    1.026489   -0.071417
O     0.370144    2.437478   -0.193236   -1.066714   -0.039287    0.029940
H     2.264963   -1.757452    0.074827    0.181821   -0.097853    0.002073
H     0.050364   -2.610054    0.195175    0.275467   -0.376150    0.020526
H    -1.484602    1.120529   -0.046730    0.572022   -0.345416    0.010537
H     2.695750    0.688594   -0.120358    0.385701   -0.300272    0.013504
12
* Frequency(8)  393.2790
C     1.646409    0.310960   -0.065344    0.285449   -0.080719   -0.000750
C     1.425600   -1.024550    0.040996    0.143056   -0.136011    0.006404
N     0.159639   -1.567528    0.114396    0.130751   -0.352575    0.023340
C    -0.999179   -0.782925    0.084393    0.238776   -0.082239    0.000407
N    -0.725500    0.558784   -0.023497    0.563404   -0.347404    0.011587
C     0.498462    1.229248   -0.105409    0.135457   -0.105743    0.004543
O    -2.133804   -1.204464    0.144811   -0.232808    1.026489   -0.071417
O     0.486387    2.441759   -0.196499   -1.066714   -0.039287    0.029940
H     2.245149   -1.746789    0.074601    0.181821   -0.097853    0.002073
H     0.020346   -2.569064    0.192938    0.275467   -0.376150    0.020526
H    -1.546937    1.158170   -0.047879    0.572022   -0.345416    0.010537
H     2.653719    0.721316   -0.121829    0.385701   -0.300272    0.013504
12
* Frequency(8)  393.2790
C     1.613521    0.320260   -0.065258    0.285449   -0.080719   -0.000750
C     1.409118   -1.008879    0.040258    0.143056   -0.136011    0.006404
N     0.144574   -1.526906    0.111707    0.130751   -0.352575    0.023340
C    -1.026690   -0.773450    0.084346    0.238776   -0.082239    0.000407
N    -0.790413    0.598810   -0.024832    0.563404   -0.347404    0.011587
C     0.482855    1.241432   -0.105933    0.135457   -0.105743    0.004543
O    -2.106981   -1.322732    0.153039   -0.232808    1.026489   -0.071417
O     0.609290    2.446285   -0.199948   -1.066714   -0.039287    0.029940
H     2.224201   -1.735515    0.074362    0.181821   -0.097853    0.002073
H    -0.011393   -2.525725    0.190573    0.275467   -0.376150    0.020526
H    -1.612843    1.197967   -0.049093    0.572022   -0.345416    0.010537
H     2.609280    0.755912   -0.123385    0.385701   -0.300272    0.013504
12
* Frequency(8)  393.2790
C     1.582414    0.329056   -0.065176    0.285449   -0.080719   -0.000750
C     1.393528   -0.994057    0.039560    0.143056   -0.136011    0.006404
N     0.130325   -1.488484    0.109163    0.130751   -0.352575    0.023340
C    -1.052710   -0.764488    0.084301    0.238776   -0.082239    0.000407
N    -0.851809    0.636668   -0.026095    0.563404   -0.347404    0.011587
C     0.468094    1.252955   -0.106428    0.135457   -0.105743    0.004543
O    -2.081611   -1.434592    0.160822   -0.232808    1.026489   -0.071417
O     0.725533    2.450566   -0.203211   -1.066714   -0.039287    0.029940
H     2.204387   -1.724851    0.074136    0.181821   -0.097853    0.002073
H    -0.041411   -2.484735    0.188336    0.275467   -0.376150    0.020526
H    -1.675178    1.235609   -0.050241    0.572022   -0.345416    0.010537
H     2.567248    0.788634   -0.124857    0.385701   -0.300272    0.013504
12
* Frequency(8)  393.2790
C     1.556461    0.336395   -0.065108    0.285449   -0.080719   -0.000750
C     1.380522   -0.981691    0.038978    0.143056   -0.136011    0.006404
N     0.118437   -1.456428    0.107041    0.130751   -0.352575    0.023340
C    -1.074420   -0.757011    0.084264    0.238776   -0.082239    0.000407
N    -0.903035    0.668255   -0.027148    0.563404   -0.347404    0.011587
C     0.455778    1.262569   -0.106841    0.135457   -0.105743    0.004543
O    -2.060444   -1.527922    0.167315   -0.232808    1.026489   -0.071417
O     0.822521    2.454138   -0.205933   -1.066714   -0.039287    0.029940
H     2.187855   -1.715954    0.073948    0.181821   -0.097853    0.002073
H    -0.066457   -2.450534    0.186470    0.275467   -0.376150    0.020526
H    -1.727187    1.267014   -0.051199    0.572022   -0.345416    0.010537
H     2.532180    0.815935   -0.126084    0.385701   -0.300272    0.013504
12
* Frequency(8)  393.2790
C     1.538473    0.341482   -0.065060    0.285449   -0.080719   -0.000750
C     1.371507   -0.973120    0.038575    0.143056   -0.136011    0.006404
N     0.110198   -1.434209    0.105570    0.130751   -0.352575    0.023340
C    -1.089467   -0.751829    0.084239    0.238776   -0.082239    0.000407
N    -0.938539    0.690147   -0.027879    0.563404   -0.347404    0.011587
C     0.447242    1.269233   -0.107127    0.135457   -0.105743    0.004543
O    -2.045773   -1.592609    0.171815   -0.232808    1.026489   -0.071417
O     0.889742    2.456614   -0.207820   -1.066714   -0.039287    0.029940
H     2.176398   -1.709788    0.073817    0.181821   -0.097853    0.002073
H    -0.083816   -2.426830    0.185177    0.275467   -0.376150    0.020526
H    -1.763234    1.288782   -0.051863    0.572022   -0.345416    0.010537
H     2.507874    0.834858   -0.126935    0.385701   -0.300272    0.013504
12
* Frequency(8)  393.2790
C     1.530399    0.343765   -0.065039    0.285449   -0.080719   -0.000750
C     1.367460   -0.969273    0.038394    0.143056   -0.136011    0.006404
N     0.106499   -1.424237    0.104910    0.130751   -0.352575    0.023340
C    -1.096220   -0.749503    0.084227    0.238776   -0.082239    0.000407
N    -0.954475    0.699973   -0.028206    0.563404   -0.347404    0.011587
C     0.443411    1.272223   -0.107255    0.135457   -0.105743    0.004543
O    -2.039188   -1.621642    0.173835   -0.232808    1.026489   -0.071417
O     0.919913    2.457725   -0.208667   -1.066714   -0.039287    0.029940
H     2.171255   -1.707020    0.073758    0.181821   -0.097853    0.002073
H    -0.091608   -2.416191    0.184596    0.275467   -0.376150    0.020526
H    -1.779413    1.298551   -0.052161    0.572022   -0.345416    0.010537
H     2.496965    0.843350   -0.127317    0.385701   -0.300272    0.013504
12
* Frequency(8)  393.2790
C     1.533115    0.342997   -0.065046    0.285449   -0.080719   -0.000750
C     1.368821   -0.970567    0.038454    0.143056   -0.136011    0.006404
N     0.107744   -1.427592    0.105132    0.130751   -0.352575    0.023340
C    -1.093948   -0.750285    0.084231    0.238776   -0.082239    0.000407
N    -0.949114    0.696668   -0.028096    0.563404   -0.347404    0.011587
C     0.444699    1.271217   -0.107212    0.135457   -0.105743    0.004543
O    -2.041403   -1.611875    0.173156   -0.232808    1.026489   -0.071417
O     0.909764    2.457352   -0.208382   -1.066714   -0.039287    0.029940
H     2.172985   -1.707951    0.073778    0.181821   -0.097853    0.002073
H    -0.088987   -2.419770    0.184791    0.275467   -0.376150    0.020526
H    -1.773971    1.295265   -0.052061    0.572022   -0.345416    0.010537
H     2.500635    0.840493   -0.127189    0.385701   -0.300272    0.013504
12
* Frequency(8)  393.2790
C     1.546326    0.339261   -0.065081    0.285449   -0.080719   -0.000750
C     1.375442   -0.976862    0.038751    0.143056   -0.136011    0.006404
N     0.113795   -1.443910    0.106213    0.130751   -0.352575    0.023340
C    -1.082897   -0.754091    0.084250    0.238776   -0.082239    0.000407
N    -0.923039    0.680589   -0.027560    0.563404   -0.347404    0.011587
C     0.450969    1.266323   -0.107002    0.135457   -0.105743    0.004543
O    -2.052178   -1.564368    0.169851   -0.232808    1.026489   -0.071417
O     0.860394    2.455533   -0.206996   -1.066714   -0.039287    0.029940
H     2.181400   -1.712480    0.073874    0.181821   -0.097853    0.002073
H    -0.076238   -2.437179    0.185741    0.275467   -0.376150    0.020526
H    -1.747497    1.279278   -0.051573    0.572022   -0.345416    0.010537
H     2.518486    0.826596   -0.126564    0.385701   -0.300272    0.013504
12
* Frequency(8)  393.2790
C     1.568601    0.332963   -0.065140    0.285449   -0.080719   -0.000750
C     1.386606   -0.987475    0.039250    0.143056   -0.136011    0.006404
N     0.123998   -1.471422    0.108034    0.130751   -0.352575    0.023340
C    -1.064265   -0.760509    0.084282    0.238776   -0.082239    0.000407
N    -0.879074    0.653480   -0.026656    0.563404   -0.347404    0.011587
C     0.461539    1.258072   -0.106647    0.135457   -0.105743    0.004543
O    -2.070345   -1.484267    0.164278   -0.232808    1.026489   -0.071417
O     0.777155    2.452468   -0.204660   -1.066714   -0.039287    0.029940
H     2.195588   -1.720116    0.074036    0.181821   -0.097853    0.002073
H    -0.054742   -2.466532    0.187343    0.275467   -0.376150    0.020526
H    -1.702860    1.252324   -0.050751    0.572022   -0.345416    0.010537
H     2.548583    0.803165   -0.125510    0.385701   -0.300272    0.013504
12
* Frequency(8)  393.2790
C     1.597525    0.324783   -0.065216    0.285449   -0.080719   -0.000750
C     1.401101   -1.001257    0.039899    0.143056   -0.136011    0.006404
N     0.137247   -1.507149    0.110399    0.130751   -0.352575    0.023340
C    -1.040070   -0.768842    0.084323    0.238776   -0.082239    0.000407
N    -0.821985    0.618278   -0.025482    0.563404   -0.347404    0.011587
C     0.475265    1.247357   -0.106187    0.135457   -0.105743    0.004543
O    -2.093935   -1.380253    0.157041   -0.232808    1.026489   -0.071417
O     0.669065    2.448487   -0.201626   -1.066714   -0.039287    0.029940
H     2.214012   -1.730031    0.074246    0.181821   -0.097853    0.002073
H    -0.026829   -2.504647    0.189423    0.275467   -0.376150    0.020526
H    -1.644897    1.217323   -0.049683    0.572022   -0.345416    0.010537
H     2.587666    0.772739   -0.124142    0.385701   -0.300272    0.013504
12
* Frequency(8)  393.2790
C     1.629965    0.315610   -0.065301    0.285449   -0.080719   -0.000750
C     1.417359   -1.016714    0.040627    0.143056   -0.136011    0.006404
N     0.152106   -1.547217    0.113051    0.130751   -0.352575    0.023340
C    -1.012934   -0.778188    0.084369    0.238776   -0.082239    0.000407
N    -0.757957    0.578797   -0.024165    0.563404   -0.347404    0.011587
C     0.490659    1.235340   -0.105671    0.135457   -0.105743    0.004543
O    -2.120393   -1.263598    0.148925   -0.232808    1.026489   -0.071417
O     0.547838    2.444022   -0.198224   -1.066714   -0.039287    0.029940
H     2.234675   -1.741152    0.074482    0.181821   -0.097853    0.002073
H     0.004476   -2.547394    0.191756    0.275467   -0.376150    0.020526
H    -1.579890    1.178069   -0.048486    0.572022   -0.345416    0.010537
H     2.631499    0.738614   -0.122607    0.385701   -0.300272    0.013504
