12
* (null), Energy   -1000.0000000
C     1.326706    0.515754   -0.072626    0.027319    0.001896   -0.000836
C     1.114284   -0.816584    0.032594   -0.127660    0.118443   -0.005763
N    -0.151041   -1.347120    0.103530    0.002572   -0.000853    0.000005
C    -1.315628   -0.577682    0.076752    0.002483   -0.001314    0.000035
N    -1.060936    0.779065   -0.032267    0.000045    0.000279   -0.000021
C     0.187706    1.435734   -0.112929   -0.000249   -0.000520    0.000044
O    -2.423226   -1.063291    0.142349   -0.000558    0.000017    0.000015
O     0.244598    2.644464   -0.204665    0.000048    0.000343   -0.000026
H     1.931646   -1.540867    0.066907    1.469842   -1.297457    0.061385
H    -0.299216   -2.347153    0.186398   -0.008645    0.018241   -0.001220
H    -1.882973    1.378347   -0.056429    0.001524   -0.000684    0.000014
H     2.328081    0.939334   -0.129643   -0.321972   -0.129907    0.017906
12
* Frequency(32) 3205.3371
C     1.329811    0.515969   -0.072721    0.027319    0.001896   -0.000836
C     1.099776   -0.803123    0.031939   -0.127660    0.118443   -0.005763
N    -0.150749   -1.347217    0.103530    0.002572   -0.000853    0.000005
C    -1.315346   -0.577831    0.076756    0.002483   -0.001314    0.000035
N    -1.060931    0.779096   -0.032270    0.000045    0.000279   -0.000021
C     0.187678    1.435675   -0.112924   -0.000249   -0.000520    0.000044
O    -2.423289   -1.063289    0.142350   -0.000558    0.000017    0.000015
O     0.244604    2.644503   -0.204668    0.000048    0.000343   -0.000026
H     2.098686   -1.688317    0.073883    1.469842   -1.297457    0.061385
H    -0.300199   -2.345080    0.186259   -0.008645    0.018241   -0.001220
H    -1.882800    1.378269   -0.056427    0.001524   -0.000684    0.000014
H     2.291490    0.924571   -0.127608   -0.321972   -0.129907    0.017906
12
* Frequency(32) 3205.3371
C     1.332579    0.516161   -0.072806    0.027319    0.001896   -0.000836
C     1.086840   -0.791121    0.031355   -0.127660    0.118443   -0.005763
N    -0.150488   -1.347303    0.103531    0.002572   -0.000853    0.000005
C    -1.315094   -0.577964    0.076759    0.002483   -0.001314    0.000035
N    -1.060926    0.779125   -0.032272    0.000045    0.000279   -0.000021
C     0.187652    1.435622   -0.112920   -0.000249   -0.000520    0.000044
O    -2.423346   -1.063287    0.142352   -0.000558    0.000017    0.000015
O     0.244608    2.644538   -0.204671    0.000048    0.000343   -0.000026
H     2.247625   -1.819788    0.080103    1.469842   -1.297457    0.061385
H    -0.301075   -2.343232    0.186135   -0.008645    0.018241   -0.001220
H    -1.882646    1.378200   -0.056426    0.001524   -0.000684    0.000014
H     2.258865    0.911407   -0.125794   -0.321972   -0.129907    0.017906
12
* Frequency(32) 3205.3371
C     1.334711    0.516309   -0.072871    0.027319    0.001896   -0.000836
C     1.076878   -0.781879    0.030906   -0.127660    0.118443   -0.005763
N    -0.150288   -1.347370    0.103531    0.002572   -0.000853    0.000005
C    -1.314901   -0.578067    0.076762    0.002483   -0.001314    0.000035
N    -1.060922    0.779146   -0.032273    0.000045    0.000279   -0.000021
C     0.187633    1.435582   -0.112916   -0.000249   -0.000520    0.000044
O    -2.423389   -1.063286    0.142353   -0.000558    0.000017    0.000015
O     0.244612    2.644565   -0.204673    0.000048    0.000343   -0.000026
H     2.362322   -1.921033    0.084893    1.469842   -1.297457    0.061385
H    -0.301749   -2.341809    0.186040   -0.008645    0.018241   -0.001220
H    -1.882527    1.378146   -0.056425    0.001524   -0.000684    0.000014
H     2.233740    0.901270   -0.124397   -0.321972   -0.129907    0.017906
12
* Frequency(32) 3205.3371
C     1.335975    0.516397   -0.072910    0.027319    0.001896   -0.000836
C     1.070970   -0.776397    0.030639   -0.127660    0.118443   -0.005763
N    -0.150169   -1.347410    0.103532    0.002572   -0.000853    0.000005
C    -1.314786   -0.578128    0.076764    0.002483   -0.001314    0.000035
N    -1.060920    0.779159   -0.032274    0.000045    0.000279   -0.000021
C     0.187622    1.435558   -0.112914   -0.000249   -0.000520    0.000044
O    -2.423415   -1.063285    0.142354   -0.000558    0.000017    0.000015
O     0.244614    2.644581   -0.204674    0.000048    0.000343   -0.000026
H     2.430349   -1.981082    0.087734    1.469842   -1.297457    0.061385
H    -0.302149   -2.340964    0.185984   -0.008645    0.018241   -0.001220
H    -1.882456    1.378115   -0.056424    0.001524   -0.000684    0.000014
H     2.218839    0.895258   -0.123568   -0.321972   -0.129907    0.017906
12
* Frequency(32) 3205.3371
C     1.336235    0.516415   -0.072918    0.027319    0.001896   -0.000836
C     1.069755   -0.775270    0.030584   -0.127660    0.118443   -0.005763
N    -0.150144   -1.347418    0.103532    0.002572   -0.000853    0.000005
C    -1.314762   -0.578140    0.076764    0.002483   -0.001314    0.000035
N    -1.060920    0.779162   -0.032275    0.000045    0.000279   -0.000021
C     0.187619    1.435553   -0.112914   -0.000249   -0.000520    0.000044
O    -2.423421   -1.063285    0.142354   -0.000558    0.000017    0.000015
O     0.244615    2.644584   -0.204674    0.000048    0.000343   -0.000026
H     2.444334   -1.993426    0.088318    1.469842   -1.297457    0.061385
H    -0.302231   -2.340791    0.185972   -0.008645    0.018241   -0.001220
H    -1.882442    1.378108   -0.056424    0.001524   -0.000684    0.000014
H     2.215776    0.894022   -0.123398   -0.321972   -0.129907    0.017906
12
* Frequency(32) 3205.3371
C     1.335462    0.516361   -0.072894    0.027319    0.001896   -0.000836
C     1.073366   -0.778620    0.030747   -0.127660    0.118443   -0.005763
N    -0.150217   -1.347394    0.103531    0.002572   -0.000853    0.000005
C    -1.314832   -0.578103    0.076763    0.002483   -0.001314    0.000035
N    -1.060921    0.779154   -0.032274    0.000045    0.000279   -0.000021
C     0.187626    1.435568   -0.112915   -0.000249   -0.000520    0.000044
O    -2.423405   -1.063285    0.142353   -0.000558    0.000017    0.000015
O     0.244613    2.644574   -0.204673    0.000048    0.000343   -0.000026
H     2.402761   -1.956729    0.086582    1.469842   -1.297457    0.061385
H    -0.301987   -2.341307    0.186007   -0.008645    0.018241   -0.001220
H    -1.882485    1.378128   -0.056424    0.001524   -0.000684    0.000014
H     2.224882    0.897696   -0.123904   -0.321972   -0.129907    0.017906
12
* Frequency(32) 3205.3371
C     1.333741    0.516242   -0.072841    0.027319    0.001896   -0.000836
C     1.081411   -0.786084    0.031110   -0.127660    0.118443   -0.005763
N    -0.150379   -1.347340    0.103531    0.002572   -0.000853    0.000005
C    -1.314989   -0.578020    0.076761    0.002483   -0.001314    0.000035
N    -1.060924    0.779136   -0.032273    0.000045    0.000279   -0.000021
C     0.187642    1.435600   -0.112918   -0.000249   -0.000520    0.000044
O    -2.423370   -1.063287    0.142352   -0.000558    0.000017    0.000015
O     0.244610    2.644553   -0.204672    0.000048    0.000343   -0.000026
H     2.310135   -1.874967    0.082714    1.469842   -1.297457    0.061385
H    -0.301442   -2.342456    0.186083   -0.008645    0.018241   -0.001220
H    -1.882581    1.378171   -0.056425    0.001524   -0.000684    0.000014
H     2.245172    0.905882   -0.125032   -0.321972   -0.129907    0.017906
12
* Frequency(32) 3205.3371
C     1.331257    0.516069   -0.072765    0.027319    0.001896   -0.000836
C     1.093018   -0.796853    0.031634   -0.127660    0.118443   -0.005763
N    -0.150613   -1.347262    0.103531    0.002572   -0.000853    0.000005
C    -1.315214   -0.577901    0.076758    0.002483   -0.001314    0.000035
N    -1.060928    0.779111   -0.032271    0.000045    0.000279   -0.000021
C     0.187665    1.435647   -0.112922   -0.000249   -0.000520    0.000044
O    -2.423319   -1.063288    0.142351   -0.000558    0.000017    0.000015
O     0.244606    2.644521   -0.204669    0.000048    0.000343   -0.000026
H     2.176495   -1.757000    0.077133    1.469842   -1.297457    0.061385
H    -0.300656   -2.344115    0.186194   -0.008645    0.018241   -0.001220
H    -1.882719    1.378233   -0.056426    0.001524   -0.000684    0.000014
H     2.274446    0.917694   -0.126661   -0.321972   -0.129907    0.017906
12
* Frequency(32) 3205.3371
C     1.328280    0.515863   -0.072674    0.027319    0.001896   -0.000836
C     1.106929   -0.809760    0.032262   -0.127660    0.118443   -0.005763
N    -0.150893   -1.347169    0.103530    0.002572   -0.000853    0.000005
C    -1.315485   -0.577758    0.076754    0.002483   -0.001314    0.000035
N    -1.060933    0.779081   -0.032268    0.000045    0.000279   -0.000021
C     0.187692    1.435704   -0.112927   -0.000249   -0.000520    0.000044
O    -2.423258   -1.063290    0.142349   -0.000558    0.000017    0.000015
O     0.244601    2.644484   -0.204667    0.000048    0.000343   -0.000026
H     2.016321   -1.615611    0.070444    1.469842   -1.297457    0.061385
H    -0.299714   -2.346102    0.186327   -0.008645    0.018241   -0.001220
H    -1.882885    1.378307   -0.056428    0.001524   -0.000684    0.000014
H     2.309533    0.931850   -0.128612   -0.321972   -0.129907    0.017906
12
* Frequency(32) 3205.3371
C     1.325132    0.515644   -0.072578    0.027319    0.001896   -0.000836
C     1.121638   -0.823407    0.032926   -0.127660    0.118443   -0.005763
N    -0.151189   -1.347071    0.103529    0.002572   -0.000853    0.000005
C    -1.315771   -0.577606    0.076750    0.002483   -0.001314    0.000035
N    -1.060938    0.779049   -0.032266    0.000045    0.000279   -0.000021
C     0.187720    1.435764   -0.112932   -0.000249   -0.000520    0.000044
O    -2.423194   -1.063292    0.142348   -0.000558    0.000017    0.000015
O     0.244595    2.644444   -0.204664    0.000048    0.000343   -0.000026
H     1.846971   -1.466123    0.063371    1.469842   -1.297457    0.061385
H    -0.298718   -2.348204    0.186468   -0.008645    0.018241   -0.001220
H    -1.883061    1.378386   -0.056430    0.001524   -0.000684    0.000014
H     2.346629    0.946818   -0.130675   -0.321972   -0.129907    0.017906
12
* Frequency(32) 3205.3371
C     1.322155    0.515438   -0.072487    0.027319    0.001896   -0.000836
C     1.135549   -0.836314    0.033554   -0.127660    0.118443   -0.005763
N    -0.151470   -1.346978    0.103529    0.002572   -0.000853    0.000005
C    -1.316042   -0.577463    0.076746    0.002483   -0.001314    0.000035
N    -1.060943    0.779018   -0.032264    0.000045    0.000279   -0.000021
C     0.187748    1.435821   -0.112937   -0.000249   -0.000520    0.000044
O    -2.423133   -1.063294    0.142346   -0.000558    0.000017    0.000015
O     0.244590    2.644407   -0.204661    0.000048    0.000343   -0.000026
H     1.686797   -1.324735    0.056682    1.469842   -1.297457    0.061385
H    -0.297776   -2.350192    0.186601   -0.008645    0.018241   -0.001220
H    -1.883227    1.378461   -0.056431    0.001524   -0.000684    0.000014
H     2.381715    0.960974   -0.132626   -0.321972   -0.129907    0.017906
12
* Frequency(32) 3205.3371
C     1.319671    0.515265   -0.072411    0.027319    0.001896   -0.000836
C     1.147156   -0.847083    0.034078   -0.127660    0.118443   -0.005763
N    -0.151704   -1.346900    0.103528    0.002572   -0.000853    0.000005
C    -1.316267   -0.577343    0.076743    0.002483   -0.001314    0.000035
N    -1.060947    0.778993   -0.032262    0.000045    0.000279   -0.000021
C     0.187770    1.435868   -0.112941   -0.000249   -0.000520    0.000044
O    -2.423083   -1.063295    0.142345   -0.000558    0.000017    0.000015
O     0.244586    2.644376   -0.204658    0.000048    0.000343   -0.000026
H     1.553157   -1.206768    0.051101    1.469842   -1.297457    0.061385
H    -0.296990   -2.351850    0.186712   -0.008645    0.018241   -0.001220
H    -1.883366    1.378523   -0.056432    0.001524   -0.000684    0.000014
H     2.410990    0.972785   -0.134254   -0.321972   -0.129907    0.017906
12
* Frequency(32) 3205.3371
C     1.317950    0.515146   -0.072358    0.027319    0.001896   -0.000836
C     1.155201   -0.854547    0.034441   -0.127660    0.118443   -0.005763
N    -0.151866   -1.346846    0.103528    0.002572   -0.000853    0.000005
C    -1.316424   -0.577261    0.076741    0.002483   -0.001314    0.000035
N    -1.060950    0.778975   -0.032260    0.000045    0.000279   -0.000021
C     0.187786    1.435901   -0.112943   -0.000249   -0.000520    0.000044
O    -2.423047   -1.063296    0.142344   -0.000558    0.000017    0.000015
O     0.244583    2.644354   -0.204657    0.000048    0.000343   -0.000026
H     1.460531   -1.125006    0.047232    1.469842   -1.297457    0.061385
H    -0.296446   -2.353000    0.186789   -0.008645    0.018241   -0.001220
H    -1.883462    1.378566   -0.056433    0.001524   -0.000684    0.000014
H     2.431279    0.980972   -0.135383   -0.321972   -0.129907    0.017906
12
* Frequency(32) 3205.3371
C     1.317177    0.515092   -0.072334    0.027319    0.001896   -0.000836
C     1.158812   -0.857897    0.034604   -0.127660    0.118443   -0.005763
N    -0.151938   -1.346822    0.103528    0.002572   -0.000853    0.000005
C    -1.316494   -0.577224    0.076740    0.002483   -0.001314    0.000035
N    -1.060951    0.778967   -0.032260    0.000045    0.000279   -0.000021
C     0.187793    1.435915   -0.112945   -0.000249   -0.000520    0.000044
O    -2.423032   -1.063297    0.142343   -0.000558    0.000017    0.000015
O     0.244582    2.644345   -0.204656    0.000048    0.000343   -0.000026
H     1.418958   -1.088308    0.045496    1.469842   -1.297457    0.061385
H    -0.296201   -2.353516    0.186823   -0.008645    0.018241   -0.001220
H    -1.883505    1.378585   -0.056434    0.001524   -0.000684    0.000014
H     2.440386    0.984646   -0.135889   -0.321972   -0.129907    0.017906
12
* Frequency(32) 3205.3371
C     1.317437    0.515110   -0.072342    0.027319    0.001896   -0.000836
C     1.157597   -0.856770    0.034550   -0.127660    0.118443   -0.005763
N    -0.151914   -1.346830    0.103528    0.002572   -0.000853    0.000005
C    -1.316471   -0.577236    0.076740    0.002483   -0.001314    0.000035
N    -1.060951    0.778970   -0.032260    0.000045    0.000279   -0.000021
C     0.187791    1.435910   -0.112944   -0.000249   -0.000520    0.000044
O    -2.423037   -1.063297    0.142343   -0.000558    0.000017    0.000015
O     0.244582    2.644348   -0.204656    0.000048    0.000343   -0.000026
H     1.432943   -1.100653    0.046080    1.469842   -1.297457    0.061385
H    -0.296283   -2.353342    0.186812   -0.008645    0.018241   -0.001220
H    -1.883490    1.378579   -0.056434    0.001524   -0.000684    0.000014
H     2.437323    0.983410   -0.135719   -0.321972   -0.129907    0.017906
12
* Frequency(32) 3205.3371
C     1.318701    0.515198   -0.072381    0.027319    0.001896   -0.000836
C     1.151689   -0.851288    0.034283   -0.127660    0.118443   -0.005763
N    -0.151795   -1.346870    0.103528    0.002572   -0.000853    0.000005
C    -1.316356   -0.577297    0.076742    0.002483   -0.001314    0.000035
N    -1.060949    0.778983   -0.032261    0.000045    0.000279   -0.000021
C     0.187779    1.435886   -0.112942   -0.000249   -0.000520    0.000044
O    -2.423063   -1.063296    0.142344   -0.000558    0.000017    0.000015
O     0.244584    2.644364   -0.204657    0.000048    0.000343   -0.000026
H     1.500970   -1.160702    0.048921    1.469842   -1.297457    0.061385
H    -0.296683   -2.352498    0.186755   -0.008645    0.018241   -0.001220
H    -1.883420    1.378547   -0.056433    0.001524   -0.000684    0.000014
H     2.422421    0.977398   -0.134890   -0.321972   -0.129907    0.017906
12
* Frequency(32) 3205.3371
C     1.320833    0.515346   -0.072446    0.027319    0.001896   -0.000836
C     1.141727   -0.842046    0.033833   -0.127660    0.118443   -0.005763
N    -0.151594   -1.346937    0.103529    0.002572   -0.000853    0.000005
C    -1.316162   -0.577399    0.076744    0.002483   -0.001314    0.000035
N    -1.060945    0.779005   -0.032263    0.000045    0.000279   -0.000021
C     0.187760    1.435846   -0.112939   -0.000249   -0.000520    0.000044
O    -2.423106   -1.063294    0.142345   -0.000558    0.000017    0.000015
O     0.244588    2.644390   -0.204660    0.000048    0.000343   -0.000026
H     1.615668   -1.261947    0.053711    1.469842   -1.297457    0.061385
H    -0.297358   -2.351075    0.186660   -0.008645    0.018241   -0.001220
H    -1.883301    1.378494   -0.056432    0.001524   -0.000684    0.000014
H     2.397297    0.967261   -0.133493   -0.321972   -0.129907    0.017906
12
* Frequency(32) 3205.3371
C     1.323601    0.515538   -0.072531    0.027319    0.001896   -0.000836
C     1.128791   -0.830044    0.033249   -0.127660    0.118443   -0.005763
N    -0.151334   -1.347023    0.103529    0.002572   -0.000853    0.000005
C    -1.315910   -0.577533    0.076748    0.002483   -0.001314    0.000035
N    -1.060941    0.779033   -0.032265    0.000045    0.000279   -0.000021
C     0.187734    1.435793   -0.112934   -0.000249   -0.000520    0.000044
O    -2.423163   -1.063293    0.142347   -0.000558    0.000017    0.000015
O     0.244593    2.644425   -0.204662    0.000048    0.000343   -0.000026
H     1.764606   -1.393418    0.059931    1.469842   -1.297457    0.061385
H    -0.298234   -2.349226    0.186536   -0.008645    0.018241   -0.001220
H    -1.883146    1.378424   -0.056430    0.001524   -0.000684    0.000014
H     2.364671    0.954097   -0.131678   -0.321972   -0.129907    0.017906
12
* Frequency(32) 3205.3371
C     1.326706    0.515754   -0.072626    0.027319    0.001896   -0.000836
C     1.114284   -0.816584    0.032594   -0.127660    0.118443   -0.005763
N    -0.151041   -1.347120    0.103530    0.002572   -0.000853    0.000005
C    -1.315628   -0.577682    0.076752    0.002483   -0.001314    0.000035
N    -1.060936    0.779065   -0.032267    0.000045    0.000279   -0.000021
C     0.187706    1.435734   -0.112929   -0.000249   -0.000520    0.000044
O    -2.423226   -1.063291    0.142349   -0.000558    0.000017    0.000015
O     0.244598    2.644464   -0.204665    0.000048    0.000343   -0.000026
H     1.931646   -1.540867    0.066907    1.469842   -1.297457    0.061385
H    -0.299216   -2.347153    0.186398   -0.008645    0.018241   -0.001220
H    -1.882973    1.378347   -0.056429    0.001524   -0.000684    0.000014
H     2.328081    0.939334   -0.129643   -0.321972   -0.129907    0.017906
