12
* (null), Energy   -1000.0000000
C     1.326706    0.515754   -0.072626   -0.286631    0.081313   -0.002275
C     1.114284   -0.816584    0.032594   -0.141967    0.137019   -0.003626
N    -0.151041   -1.347120    0.103530   -0.129542    0.351898   -0.022550
C    -1.315628   -0.577682    0.076752   -0.238595    0.081225   -0.001218
N    -1.060936    0.779065   -0.032267   -0.564237    0.346170   -0.011989
C     0.187706    1.435734   -0.112929   -0.137016    0.105108   -0.006167
O    -2.423226   -1.063291    0.142349    0.231990   -1.024388    0.071113
O     0.244598    2.644464   -0.204665    1.068270    0.038800   -0.028333
H     1.931646   -1.540867    0.066907   -0.179752    0.100170    0.005714
H    -0.299216   -2.347153    0.186398   -0.272451    0.375105   -0.022326
H    -1.882973    1.378347   -0.056429   -0.574085    0.342165   -0.008979
H     2.328081    0.939334   -0.129643   -0.388130    0.303751   -0.015153
12
* Frequency(8)  393.5754
C     1.294132    0.524994   -0.072884   -0.286631    0.081313   -0.002275
C     1.098150   -0.801012    0.032182   -0.141967    0.137019   -0.003626
N    -0.165763   -1.307129    0.100967   -0.129542    0.351898   -0.022550
C    -1.342743   -0.568451    0.076613   -0.238595    0.081225   -0.001218
N    -1.125058    0.818405   -0.033630   -0.564237    0.346170   -0.011989
C     0.172135    1.447679   -0.113630   -0.137016    0.105108   -0.006167
O    -2.396862   -1.179707    0.150430    0.231990   -1.024388    0.071113
O     0.366001    2.648874   -0.207885    1.068270    0.038800   -0.028333
H     1.911218   -1.529484    0.067557   -0.179752    0.100170    0.005714
H    -0.330179   -2.304525    0.183860   -0.272451    0.375105   -0.022326
H    -1.948215    1.417232   -0.057449   -0.574085    0.342165   -0.008979
H     2.283972    0.973854   -0.131365   -0.388130    0.303751   -0.015153
12
* Frequency(8)  393.5754
C     1.265088    0.533234   -0.073115   -0.286631    0.081313   -0.002275
C     1.083764   -0.787128    0.031815   -0.141967    0.137019   -0.003626
N    -0.178890   -1.271471    0.098682   -0.129542    0.351898   -0.022550
C    -1.366920   -0.560221    0.076490   -0.238595    0.081225   -0.001218
N    -1.182232    0.853482   -0.034844   -0.564237    0.346170   -0.011989
C     0.158251    1.458330   -0.114255   -0.137016    0.105108   -0.006167
O    -2.373354   -1.283508    0.157636    0.231990   -1.024388    0.071113
O     0.474249    2.652805   -0.210756    1.068270    0.038800   -0.028333
H     1.893004   -1.519334    0.068136   -0.179752    0.100170    0.005714
H    -0.357786   -2.266515    0.181598   -0.272451    0.375105   -0.022326
H    -2.006387    1.451904   -0.058359   -0.574085    0.342165   -0.008979
H     2.244643    1.004633   -0.132901   -0.388130    0.303751   -0.015153
12
* Frequency(8)  393.5754
C     1.242721    0.539579   -0.073292   -0.286631    0.081313   -0.002275
C     1.072686   -0.776436    0.031532   -0.141967    0.137019   -0.003626
N    -0.188998   -1.244011    0.096922   -0.129542    0.351898   -0.022550
C    -1.385538   -0.553882    0.076395   -0.238595    0.081225   -0.001218
N    -1.226262    0.880495   -0.035780   -0.564237    0.346170   -0.011989
C     0.147559    1.466531   -0.114736   -0.137016    0.105108   -0.006167
O    -2.355251   -1.363445    0.163185    0.231990   -1.024388    0.071113
O     0.557610    2.655833   -0.212967    1.068270    0.038800   -0.028333
H     1.878977   -1.511517    0.068582   -0.179752    0.100170    0.005714
H    -0.379047   -2.237244    0.179856   -0.272451    0.375105   -0.022326
H    -2.051185    1.478604   -0.059060   -0.574085    0.342165   -0.008979
H     2.214356    1.028335   -0.134083   -0.388130    0.303751   -0.015153
12
* Frequency(8)  393.5754
C     1.229455    0.543342   -0.073398   -0.286631    0.081313   -0.002275
C     1.066116   -0.770095    0.031364   -0.141967    0.137019   -0.003626
N    -0.194994   -1.227725    0.095879   -0.129542    0.351898   -0.022550
C    -1.396581   -0.550123    0.076338   -0.238595    0.081225   -0.001218
N    -1.252376    0.896517   -0.036335   -0.564237    0.346170   -0.011989
C     0.141218    1.471396   -0.115022   -0.137016    0.105108   -0.006167
O    -2.344514   -1.410856    0.166476    0.231990   -1.024388    0.071113
O     0.607051    2.657629   -0.214278    1.068270    0.038800   -0.028333
H     1.870658   -1.506881    0.068846   -0.179752    0.100170    0.005714
H    -0.391656   -2.219884    0.178823   -0.272451    0.375105   -0.022326
H    -2.077755    1.494440   -0.059475   -0.574085    0.342165   -0.008979
H     2.196392    1.042394   -0.134785   -0.388130    0.303751   -0.015153
12
* Frequency(8)  393.5754
C     1.226728    0.544116   -0.073419   -0.286631    0.081313   -0.002275
C     1.064765   -0.768791    0.031330   -0.141967    0.137019   -0.003626
N    -0.196226   -1.224376    0.095664   -0.129542    0.351898   -0.022550
C    -1.398851   -0.549350    0.076327   -0.238595    0.081225   -0.001218
N    -1.257744    0.899810   -0.036449   -0.564237    0.346170   -0.011989
C     0.139914    1.472396   -0.115080   -0.137016    0.105108   -0.006167
O    -2.342307   -1.420602    0.167153    0.231990   -1.024388    0.071113
O     0.617215    2.657998   -0.214548    1.068270    0.038800   -0.028333
H     1.868948   -1.505928    0.068900   -0.179752    0.100170    0.005714
H    -0.394248   -2.216315    0.178610   -0.272451    0.375105   -0.022326
H    -2.083217    1.497696   -0.059561   -0.574085    0.342165   -0.008979
H     2.192699    1.045284   -0.134929   -0.388130    0.303751   -0.015153
12
* Frequency(8)  393.5754
C     1.234835    0.541816   -0.073355   -0.286631    0.081313   -0.002275
C     1.068780   -0.772666    0.031432   -0.141967    0.137019   -0.003626
N    -0.192562   -1.234330    0.096302   -0.129542    0.351898   -0.022550
C    -1.392103   -0.551648    0.076361   -0.238595    0.081225   -0.001218
N    -1.241785    0.890019   -0.036110   -0.564237    0.346170   -0.011989
C     0.143790    1.469423   -0.114906   -0.137016    0.105108   -0.006167
O    -2.348869   -1.391628    0.165142    0.231990   -1.024388    0.071113
O     0.587001    2.656900   -0.213746    1.068270    0.038800   -0.028333
H     1.874032   -1.508761    0.068739   -0.179752    0.100170    0.005714
H    -0.386542   -2.226924    0.179242   -0.272451    0.375105   -0.022326
H    -2.066979    1.488018   -0.059307   -0.574085    0.342165   -0.008979
H     2.203677    1.036692   -0.134500   -0.388130    0.303751   -0.015153
12
* Frequency(8)  393.5754
C     1.252898    0.536692   -0.073212   -0.286631    0.081313   -0.002275
C     1.077727   -0.781301    0.031661   -0.141967    0.137019   -0.003626
N    -0.184399   -1.256505    0.097723   -0.129542    0.351898   -0.022550
C    -1.377067   -0.556766    0.076438   -0.238595    0.081225   -0.001218
N    -1.206229    0.868205   -0.035354   -0.564237    0.346170   -0.011989
C     0.152424    1.462800   -0.114517   -0.137016    0.105108   -0.006167
O    -2.363488   -1.327074    0.160660    0.231990   -1.024388    0.071113
O     0.519681    2.654455   -0.211961    1.068270    0.038800   -0.028333
H     1.885359   -1.515073    0.068379   -0.179752    0.100170    0.005714
H    -0.369373   -2.250563    0.180649   -0.272451    0.375105   -0.022326
H    -2.030802    1.466456   -0.058741   -0.574085    0.342165   -0.008979
H     2.228136    1.017551   -0.133545   -0.388130    0.303751   -0.015153
12
* Frequency(8)  393.5754
C     1.278959    0.529299   -0.073005   -0.286631    0.081313   -0.002275
C     1.090634   -0.793759    0.031990   -0.141967    0.137019   -0.003626
N    -0.172621   -1.288500    0.099773   -0.129542    0.351898   -0.022550
C    -1.355374   -0.564151    0.076549   -0.238595    0.081225   -0.001218
N    -1.154927    0.836730   -0.034264   -0.564237    0.346170   -0.011989
C     0.164882    1.453243   -0.113957   -0.137016    0.105108   -0.006167
O    -2.384581   -1.233935    0.154195    0.231990   -1.024388    0.071113
O     0.422552    2.650928   -0.209385    1.068270    0.038800   -0.028333
H     1.901703   -1.524181    0.067859   -0.179752    0.100170    0.005714
H    -0.344602   -2.284668    0.182679   -0.272451    0.375105   -0.022326
H    -1.978605    1.435345   -0.057925   -0.574085    0.342165   -0.008979
H     2.263426    0.989933   -0.132167   -0.388130    0.303751   -0.015153
12
* Frequency(8)  393.5754
C     1.310194    0.520438   -0.072757   -0.286631    0.081313   -0.002275
C     1.106105   -0.808690    0.032385   -0.141967    0.137019   -0.003626
N    -0.158504   -1.326848    0.102231   -0.129542    0.351898   -0.022550
C    -1.329373   -0.573003    0.076682   -0.238595    0.081225   -0.001218
N    -1.093440    0.799007   -0.032958   -0.564237    0.346170   -0.011989
C     0.179813    1.441789   -0.113285   -0.137016    0.105108   -0.006167
O    -2.409862   -1.122304    0.146445    0.231990   -1.024388    0.071113
O     0.306139    2.646699   -0.206297    1.068270    0.038800   -0.028333
H     1.921291   -1.535097    0.067236   -0.179752    0.100170    0.005714
H    -0.314912   -2.325544    0.185112   -0.272451    0.375105   -0.022326
H    -1.916045    1.398058   -0.056946   -0.574085    0.342165   -0.008979
H     2.305721    0.956832   -0.130516   -0.388130    0.303751   -0.015153
12
* Frequency(8)  393.5754
C     1.343218    0.511069   -0.072495   -0.286631    0.081313   -0.002275
C     1.122462   -0.824477    0.032803   -0.141967    0.137019   -0.003626
N    -0.143579   -1.367392    0.104829   -0.129542    0.351898   -0.022550
C    -1.301883   -0.582361    0.076822   -0.238595    0.081225   -0.001218
N    -1.028431    0.759122   -0.031576   -0.564237    0.346170   -0.011989
C     0.195599    1.429679   -0.112574   -0.137016    0.105108   -0.006167
O    -2.436591   -1.004278    0.138252    0.231990   -1.024388    0.071113
O     0.183057    2.642229   -0.203033    1.068270    0.038800   -0.028333
H     1.942001   -1.546638    0.066578   -0.179752    0.100170    0.005714
H    -0.283521   -2.368762    0.187684   -0.272451    0.375105   -0.022326
H    -1.849901    1.358635   -0.055911   -0.574085    0.342165   -0.008979
H     2.350440    0.921835   -0.128770   -0.388130    0.303751   -0.015153
12
* Frequency(8)  393.5754
C     1.374453    0.502208   -0.072247   -0.286631    0.081313   -0.002275
C     1.137933   -0.839409    0.033198   -0.141967    0.137019   -0.003626
N    -0.129462   -1.405740    0.107286   -0.129542    0.351898   -0.022550
C    -1.275883   -0.591212    0.076955   -0.238595    0.081225   -0.001218
N    -0.966944    0.721399   -0.030270   -0.564237    0.346170   -0.011989
C     0.210530    1.418225   -0.111902   -0.137016    0.105108   -0.006167
O    -2.461871   -0.892647    0.130502    0.231990   -1.024388    0.071113
O     0.066644    2.638001   -0.199945    1.068270    0.038800   -0.028333
H     1.961589   -1.557554    0.065955   -0.179752    0.100170    0.005714
H    -0.253831   -2.409639    0.190117   -0.272451    0.375105   -0.022326
H    -1.787341    1.321348   -0.054933   -0.574085    0.342165   -0.008979
H     2.392736    0.888735   -0.127119   -0.388130    0.303751   -0.015153
12
* Frequency(8)  393.5754
C     1.400514    0.494815   -0.072040   -0.286631    0.081313   -0.002275
C     1.150840   -0.851867    0.033528   -0.141967    0.137019   -0.003626
N    -0.117684   -1.437735    0.109337   -0.129542    0.351898   -0.022550
C    -1.254189   -0.598597    0.077066   -0.238595    0.081225   -0.001218
N    -0.915643    0.689925   -0.029180   -0.564237    0.346170   -0.011989
C     0.222988    1.408668   -0.111341   -0.137016    0.105108   -0.006167
O    -2.482964   -0.799507    0.124037    0.231990   -1.024388    0.071113
O    -0.030485    2.634473   -0.197369    1.068270    0.038800   -0.028333
H     1.977933   -1.566661    0.065436   -0.179752    0.100170    0.005714
H    -0.229059   -2.443744    0.192147   -0.272451    0.375105   -0.022326
H    -1.735144    1.290238   -0.054117   -0.574085    0.342165   -0.008979
H     2.428026    0.861117   -0.125741   -0.388130    0.303751   -0.015153
12
* Frequency(8)  393.5754
C     1.418577    0.489691   -0.071897   -0.286631    0.081313   -0.002275
C     1.159787   -0.860501    0.033756   -0.141967    0.137019   -0.003626
N    -0.109520   -1.459911    0.110758   -0.129542    0.351898   -0.022550
C    -1.239153   -0.603716    0.077142   -0.238595    0.081225   -0.001218
N    -0.880086    0.668110   -0.028425   -0.564237    0.346170   -0.011989
C     0.231622    1.402045   -0.110953   -0.137016    0.105108   -0.006167
O    -2.497584   -0.734953    0.119555    0.231990   -1.024388    0.071113
O    -0.097804    2.632028   -0.195584    1.068270    0.038800   -0.028333
H     1.989260   -1.572974    0.065076   -0.179752    0.100170    0.005714
H    -0.211890   -2.467382    0.193554   -0.272451    0.375105   -0.022326
H    -1.698967    1.268676   -0.053551   -0.574085    0.342165   -0.008979
H     2.452484    0.841975   -0.124787   -0.388130    0.303751   -0.015153
12
* Frequency(8)  393.5754
C     1.426684    0.487391   -0.071832   -0.286631    0.081313   -0.002275
C     1.163802   -0.864377    0.033859   -0.141967    0.137019   -0.003626
N    -0.105856   -1.469864    0.111395   -0.129542    0.351898   -0.022550
C    -1.232405   -0.606013    0.077177   -0.238595    0.081225   -0.001218
N    -0.864127    0.658319   -0.028085   -0.564237    0.346170   -0.011989
C     0.235498    1.399072   -0.110778   -0.137016    0.105108   -0.006167
O    -2.504145   -0.705979    0.117544    0.231990   -1.024388    0.071113
O    -0.128019    2.630931   -0.194782    1.068270    0.038800   -0.028333
H     1.994344   -1.575807    0.064914   -0.179752    0.100170    0.005714
H    -0.204184   -2.477992    0.194185   -0.272451    0.375105   -0.022326
H    -1.682730    1.258998   -0.053297   -0.574085    0.342165   -0.008979
H     2.463462    0.833384   -0.124358   -0.388130    0.303751   -0.015153
12
* Frequency(8)  393.5754
C     1.423957    0.488165   -0.071854   -0.286631    0.081313   -0.002275
C     1.162451   -0.863073    0.033824   -0.141967    0.137019   -0.003626
N    -0.107089   -1.466515    0.111181   -0.129542    0.351898   -0.022550
C    -1.234675   -0.605241    0.077165   -0.238595    0.081225   -0.001218
N    -0.869496    0.661612   -0.028199   -0.564237    0.346170   -0.011989
C     0.234194    1.400072   -0.110837   -0.137016    0.105108   -0.006167
O    -2.501938   -0.715726    0.118221    0.231990   -1.024388    0.071113
O    -0.117855    2.631300   -0.195052    1.068270    0.038800   -0.028333
H     1.992634   -1.574854    0.064968   -0.179752    0.100170    0.005714
H    -0.206776   -2.474423    0.193973   -0.272451    0.375105   -0.022326
H    -1.688192    1.262253   -0.053382   -0.574085    0.342165   -0.008979
H     2.459769    0.836274   -0.124502   -0.388130    0.303751   -0.015153
12
* Frequency(8)  393.5754
C     1.410691    0.491928   -0.071959   -0.286631    0.081313   -0.002275
C     1.155881   -0.856731    0.033657   -0.141967    0.137019   -0.003626
N    -0.113084   -1.450229    0.110137   -0.129542    0.351898   -0.022550
C    -1.245718   -0.601481    0.077109   -0.238595    0.081225   -0.001218
N    -0.895610    0.677634   -0.028754   -0.564237    0.346170   -0.011989
C     0.227853    1.404937   -0.111122   -0.137016    0.105108   -0.006167
O    -2.491201   -0.763137    0.121512    0.231990   -1.024388    0.071113
O    -0.068414    2.633095   -0.196363    1.068270    0.038800   -0.028333
H     1.984315   -1.570218    0.065233   -0.179752    0.100170    0.005714
H    -0.219386   -2.457062    0.192940   -0.272451    0.375105   -0.022326
H    -1.714761    1.278089   -0.053798   -0.574085    0.342165   -0.008979
H     2.441806    0.850332   -0.125203   -0.388130    0.303751   -0.015153
12
* Frequency(8)  393.5754
C     1.388324    0.498273   -0.072137   -0.286631    0.081313   -0.002275
C     1.144803   -0.846039    0.033374   -0.141967    0.137019   -0.003626
N    -0.123193   -1.422769    0.108377   -0.129542    0.351898   -0.022550
C    -1.264336   -0.595143    0.077014   -0.238595    0.081225   -0.001218
N    -0.939639    0.704647   -0.029690   -0.564237    0.346170   -0.011989
C     0.217161    1.413139   -0.111604   -0.137016    0.105108   -0.006167
O    -2.473098   -0.843074    0.127061    0.231990   -1.024388    0.071113
O     0.014947    2.636123   -0.198574    1.068270    0.038800   -0.028333
H     1.970288   -1.562401    0.065679   -0.179752    0.100170    0.005714
H    -0.240646   -2.427791    0.191197   -0.272451    0.375105   -0.022326
H    -1.759560    1.304790   -0.054498   -0.574085    0.342165   -0.008979
H     2.411519    0.874035   -0.126386   -0.388130    0.303751   -0.015153
12
* Frequency(8)  393.5754
C     1.359280    0.506513   -0.072367   -0.286631    0.081313   -0.002275
C     1.130417   -0.832155    0.033006   -0.141967    0.137019   -0.003626
N    -0.136320   -1.387111    0.106092   -0.129542    0.351898   -0.022550
C    -1.288513   -0.586913    0.076890   -0.238595    0.081225   -0.001218
N    -0.996813    0.739724   -0.030905   -0.564237    0.346170   -0.011989
C     0.203277    1.423789   -0.112228   -0.137016    0.105108   -0.006167
O    -2.449590   -0.946874    0.134267    0.231990   -1.024388    0.071113
O     0.123195    2.640055   -0.201445    1.068270    0.038800   -0.028333
H     1.952074   -1.552251    0.066258   -0.179752    0.100170    0.005714
H    -0.268254   -2.389782    0.188935   -0.272451    0.375105   -0.022326
H    -1.817731    1.339461   -0.055408   -0.574085    0.342165   -0.008979
H     2.372190    0.904814   -0.127921   -0.388130    0.303751   -0.015153
12
* Frequency(8)  393.5754
C     1.326706    0.515754   -0.072626   -0.286631    0.081313   -0.002275
C     1.114284   -0.816584    0.032594   -0.141967    0.137019   -0.003626
N    -0.151041   -1.347120    0.103530   -0.129542    0.351898   -0.022550
C    -1.315628   -0.577682    0.076752   -0.238595    0.081225   -0.001218
N    -1.060936    0.779065   -0.032267   -0.564237    0.346170   -0.011989
C     0.187706    1.435734   -0.112929   -0.137016    0.105108   -0.006167
O    -2.423226   -1.063291    0.142349    0.231990   -1.024388    0.071113
O     0.244598    2.644464   -0.204665    1.068270    0.038800   -0.028333
H     1.931646   -1.540867    0.066907   -0.179752    0.100170    0.005714
H    -0.299216   -2.347153    0.186398   -0.272451    0.375105   -0.022326
H    -1.882973    1.378347   -0.056429   -0.574085    0.342165   -0.008979
H     2.328081    0.939334   -0.129643   -0.388130    0.303751   -0.015153
