12
* (null), Energy   -1000.0000000
C     1.629965    0.315610   -0.065301    0.023732    0.144007   -0.011434
C     1.417359   -1.016714    0.040627    0.083518   -0.010295   -0.001390
N     0.152106   -1.547217    0.113051    0.034800   -0.152393    0.010619
C    -1.012934   -0.778188    0.084369   -0.193946    0.454486   -0.029238
N    -0.757957    0.578797   -0.024165    0.291560    0.045980   -0.010977
C     0.490659    1.235340   -0.105671   -0.280325    0.034793    0.004532
O    -2.120393   -1.263598    0.148925   -0.039146   -0.110493    0.009278
O     0.547838    2.444022   -0.198224    0.030293   -0.096107    0.006470
H     2.234675   -1.741152    0.074482   -0.342913   -0.527977    0.048833
H     0.004476   -2.547394    0.191756    0.650714   -0.245952    0.002093
H    -1.579890    1.178069   -0.048486   -0.678894   -1.293095    0.115180
H     2.631499    0.738614   -0.122607    0.349898   -0.598483    0.036118
12
* Frequency(26) 1404.6594
C     1.632662    0.331976   -0.066600    0.023732    0.144007   -0.011434
C     1.426850   -1.017884    0.040469    0.083518   -0.010295   -0.001390
N     0.156061   -1.564536    0.114258    0.034800   -0.152393    0.010619
C    -1.034975   -0.726538    0.081047   -0.193946    0.454486   -0.029238
N    -0.724822    0.584022   -0.025412    0.291560    0.045980   -0.010977
C     0.458801    1.239294   -0.105156   -0.280325    0.034793    0.004532
O    -2.124841   -1.276155    0.149979   -0.039146   -0.110493    0.009278
O     0.551281    2.433100   -0.197488    0.030293   -0.096107    0.006470
H     2.195705   -1.801154    0.080031   -0.342913   -0.527977    0.048833
H     0.078427   -2.575345    0.191994    0.650714   -0.245952    0.002093
H    -1.657043    1.031115   -0.035396   -0.678894   -1.293095    0.115180
H     2.671263    0.670600   -0.118503    0.349898   -0.598483    0.036118
12
* Frequency(26) 1404.6594
C     1.635067    0.346568   -0.067759    0.023732    0.144007   -0.011434
C     1.435313   -1.018927    0.040328    0.083518   -0.010295   -0.001390
N     0.159587   -1.579977    0.115334    0.034800   -0.152393    0.010619
C    -1.054628   -0.680485    0.078084   -0.193946    0.454486   -0.029238
N    -0.695279    0.588681   -0.026525    0.291560    0.045980   -0.010977
C     0.430396    1.242819   -0.104697   -0.280325    0.034793    0.004532
O    -2.128808   -1.287351    0.150919   -0.039146   -0.110493    0.009278
O     0.554351    2.423361   -0.196833    0.030293   -0.096107    0.006470
H     2.160957   -1.854653    0.084979   -0.342913   -0.527977    0.048833
H     0.144363   -2.600268    0.192206    0.650714   -0.245952    0.002093
H    -1.725835    0.900086   -0.023725   -0.678894   -1.293095    0.115180
H     2.706718    0.609956   -0.114843    0.349898   -0.598483    0.036118
12
* Frequency(26) 1404.6594
C     1.636919    0.357805   -0.068651    0.023732    0.144007   -0.011434
C     1.441830   -1.019731    0.040220    0.083518   -0.010295   -0.001390
N     0.162303   -1.591869    0.116163    0.034800   -0.152393    0.010619
C    -1.069762   -0.645020    0.075802   -0.193946    0.454486   -0.029238
N    -0.672527    0.592269   -0.027381    0.291560    0.045980   -0.010977
C     0.408521    1.245534   -0.104343   -0.280325    0.034793    0.004532
O    -2.131863   -1.295973    0.151643   -0.039146   -0.110493    0.009278
O     0.556715    2.415862   -0.196328    0.030293   -0.096107    0.006470
H     2.134199   -1.895853    0.088790   -0.342913   -0.527977    0.048833
H     0.195141   -2.619460    0.192369    0.650714   -0.245952    0.002093
H    -1.778811    0.799181   -0.014737   -0.678894   -1.293095    0.115180
H     2.734022    0.563254   -0.112024    0.349898   -0.598483    0.036118
12
* Frequency(26) 1404.6594
C     1.638017    0.364470   -0.069180    0.023732    0.144007   -0.011434
C     1.445696   -1.020207    0.040155    0.083518   -0.010295   -0.001390
N     0.163913   -1.598922    0.116654    0.034800   -0.152393    0.010619
C    -1.078738   -0.623985    0.074449   -0.193946    0.454486   -0.029238
N    -0.659033    0.594398   -0.027889    0.291560    0.045980   -0.010977
C     0.395547    1.247145   -0.104133   -0.280325    0.034793    0.004532
O    -2.133675   -1.301087    0.152073   -0.039146   -0.110493    0.009278
O     0.558117    2.411414   -0.196028    0.030293   -0.096107    0.006470
H     2.118328   -1.920289    0.091050   -0.342913   -0.527977    0.048833
H     0.225257   -2.630843    0.192466    0.650714   -0.245952    0.002093
H    -1.810232    0.739334   -0.009406   -0.678894   -1.293095    0.115180
H     2.750216    0.535555   -0.110353    0.349898   -0.598483    0.036118
12
* Frequency(26) 1404.6594
C     1.638243    0.365840   -0.069289    0.023732    0.144007   -0.011434
C     1.446490   -1.020305    0.040142    0.083518   -0.010295   -0.001390
N     0.164244   -1.600372    0.116755    0.034800   -0.152393    0.010619
C    -1.080583   -0.619661    0.074171   -0.193946    0.454486   -0.029238
N    -0.656259    0.594835   -0.027994    0.291560    0.045980   -0.010977
C     0.392880    1.247476   -0.104090   -0.280325    0.034793    0.004532
O    -2.134047   -1.302138    0.152161   -0.039146   -0.110493    0.009278
O     0.558405    2.410499   -0.195967    0.030293   -0.096107    0.006470
H     2.115065   -1.925313    0.091515   -0.342913   -0.527977    0.048833
H     0.231448   -2.633183    0.192486    0.650714   -0.245952    0.002093
H    -1.816691    0.727031   -0.008310   -0.678894   -1.293095    0.115180
H     2.753545    0.529861   -0.110009    0.349898   -0.598483    0.036118
12
* Frequency(26) 1404.6594
C     1.637571    0.361767   -0.068966    0.023732    0.144007   -0.011434
C     1.444128   -1.020014    0.040181    0.083518   -0.010295   -0.001390
N     0.163260   -1.596062    0.116455    0.034800   -0.152393    0.010619
C    -1.075098   -0.632516    0.074998   -0.193946    0.454486   -0.029238
N    -0.664506    0.593534   -0.027683    0.291560    0.045980   -0.010977
C     0.400809    1.246492   -0.104218   -0.280325    0.034793    0.004532
O    -2.132940   -1.299013    0.151898   -0.039146   -0.110493    0.009278
O     0.557548    2.413218   -0.196150    0.030293   -0.096107    0.006470
H     2.124764   -1.910379    0.090134   -0.342913   -0.527977    0.048833
H     0.213044   -2.626227    0.192427    0.650714   -0.245952    0.002093
H    -1.797489    0.763605   -0.011568   -0.678894   -1.293095    0.115180
H     2.743649    0.546788   -0.111031    0.349898   -0.598483    0.036118
12
* Frequency(26) 1404.6594
C     1.636076    0.352692   -0.068245    0.023732    0.144007   -0.011434
C     1.438865   -1.019365    0.040269    0.083518   -0.010295   -0.001390
N     0.161067   -1.586459    0.115786    0.034800   -0.152393    0.010619
C    -1.062876   -0.661156    0.076840   -0.193946    0.454486   -0.029238
N    -0.682879    0.590637   -0.026991    0.291560    0.045980   -0.010977
C     0.418474    1.244299   -0.104504   -0.280325    0.034793    0.004532
O    -2.130473   -1.292050    0.151314   -0.039146   -0.110493    0.009278
O     0.555639    2.419274   -0.196557    0.030293   -0.096107    0.006470
H     2.146374   -1.877108    0.087056   -0.342913   -0.527977    0.048833
H     0.172037   -2.610728    0.192295    0.650714   -0.245952    0.002093
H    -1.754707    0.845092   -0.018826   -0.678894   -1.293095    0.115180
H     2.721599    0.584503   -0.113307    0.349898   -0.598483    0.036118
12
* Frequency(26) 1404.6594
C     1.633918    0.339599   -0.067206    0.023732    0.144007   -0.011434
C     1.431272   -1.018429    0.040396    0.083518   -0.010295   -0.001390
N     0.157903   -1.572603    0.114820    0.034800   -0.152393    0.010619
C    -1.045242   -0.702479    0.079499   -0.193946    0.454486   -0.029238
N    -0.709388    0.586456   -0.025993    0.291560    0.045980   -0.010977
C     0.443962    1.241136   -0.104916   -0.280325    0.034793    0.004532
O    -2.126914   -1.282004    0.150470   -0.039146   -0.110493    0.009278
O     0.552885    2.428012   -0.197146    0.030293   -0.096107    0.006470
H     2.177552   -1.829103    0.082616   -0.342913   -0.527977    0.048833
H     0.112873   -2.588365    0.192104    0.650714   -0.245952    0.002093
H    -1.692981    0.962663   -0.029299   -0.678894   -1.293095    0.115180
H     2.689786    0.638918   -0.116591    0.349898   -0.598483    0.036118
12
* Frequency(26) 1404.6594
C     1.631332    0.323906   -0.065960    0.023732    0.144007   -0.011434
C     1.422170   -1.017307    0.040547    0.083518   -0.010295   -0.001390
N     0.154111   -1.555996    0.113663    0.034800   -0.152393    0.010619
C    -1.024107   -0.752006    0.082685   -0.193946    0.454486   -0.029238
N    -0.741161    0.581446   -0.024797    0.291560    0.045980   -0.010977
C     0.474510    1.237344   -0.105410   -0.280325    0.034793    0.004532
O    -2.122648   -1.269963    0.149459   -0.039146   -0.110493    0.009278
O     0.549584    2.438485   -0.197851    0.030293   -0.096107    0.006470
H     2.214920   -1.771567    0.077295   -0.342913   -0.527977    0.048833
H     0.041963   -2.561563    0.191876    0.650714   -0.245952    0.002093
H    -1.619000    1.103576   -0.041850   -0.678894   -1.293095    0.115180
H     2.651656    0.704137   -0.120527    0.349898   -0.598483    0.036118
12
* Frequency(26) 1404.6594
C     1.628598    0.307314   -0.064642    0.023732    0.144007   -0.011434
C     1.412548   -1.016121    0.040707    0.083518   -0.010295   -0.001390
N     0.150101   -1.538438    0.112440    0.034800   -0.152393    0.010619
C    -1.001761   -0.804370    0.086054   -0.193946    0.454486   -0.029238
N    -0.774753    0.576148   -0.023532    0.291560    0.045980   -0.010977
C     0.506808    1.233336   -0.105932   -0.280325    0.034793    0.004532
O    -2.118138   -1.257233    0.148390   -0.039146   -0.110493    0.009278
O     0.546093    2.449559   -0.198596    0.030293   -0.096107    0.006470
H     2.254429   -1.710736    0.071668   -0.342913   -0.527977    0.048833
H    -0.033010   -2.533225    0.191635    0.650714   -0.245952    0.002093
H    -1.540780    1.252561   -0.055121   -0.678894   -1.293095    0.115180
H     2.611342    0.773092   -0.124688    0.349898   -0.598483    0.036118
12
* Frequency(26) 1404.6594
C     1.626012    0.291621   -0.063396    0.023732    0.144007   -0.011434
C     1.403447   -1.014999    0.040859    0.083518   -0.010295   -0.001390
N     0.146309   -1.521831    0.111282    0.034800   -0.152393    0.010619
C    -0.980626   -0.853897    0.089240   -0.193946    0.454486   -0.029238
N    -0.806525    0.571137   -0.022336    0.291560    0.045980   -0.010977
C     0.537356    1.229544   -0.106426   -0.280325    0.034793    0.004532
O    -2.113872   -1.245192    0.147379   -0.039146   -0.110493    0.009278
O     0.542792    2.460032   -0.199301    0.030293   -0.096107    0.006470
H     2.291798   -1.653200    0.066347   -0.342913   -0.527977    0.048833
H    -0.103921   -2.506423    0.191407    0.650714   -0.245952    0.002093
H    -1.466799    1.393474   -0.067672   -0.678894   -1.293095    0.115180
H     2.573213    0.838310   -0.128624    0.349898   -0.598483    0.036118
12
* Frequency(26) 1404.6594
C     1.623854    0.278528   -0.062357    0.023732    0.144007   -0.011434
C     1.395853   -1.014063    0.040985    0.083518   -0.010295   -0.001390
N     0.143145   -1.507975    0.110317    0.034800   -0.152393    0.010619
C    -0.962992   -0.895219    0.091898   -0.193946    0.454486   -0.029238
N    -0.833034    0.566957   -0.021338    0.291560    0.045980   -0.010977
C     0.562843    1.226381   -0.106838   -0.280325    0.034793    0.004532
O    -2.110312   -1.235145    0.146536   -0.039146   -0.110493    0.009278
O     0.540038    2.468770   -0.199890    0.030293   -0.096107    0.006470
H     2.322976   -1.605196    0.061907   -0.342913   -0.527977    0.048833
H    -0.163085   -2.484061    0.191217    0.650714   -0.245952    0.002093
H    -1.405072    1.511045   -0.078145   -0.678894   -1.293095    0.115180
H     2.541399    0.892725   -0.131908    0.349898   -0.598483    0.036118
12
* Frequency(26) 1404.6594
C     1.622358    0.269453   -0.061636    0.023732    0.144007   -0.011434
C     1.390590   -1.013415    0.041073    0.083518   -0.010295   -0.001390
N     0.140952   -1.498372    0.109648    0.034800   -0.152393    0.010619
C    -0.950770   -0.923860    0.093741   -0.193946    0.454486   -0.029238
N    -0.851408    0.564059   -0.020646    0.291560    0.045980   -0.010977
C     0.580509    1.224188   -0.107123   -0.280325    0.034793    0.004532
O    -2.107845   -1.228182    0.145951   -0.039146   -0.110493    0.009278
O     0.538129    2.474826   -0.200297    0.030293   -0.096107    0.006470
H     2.344585   -1.571924    0.058829   -0.342913   -0.527977    0.048833
H    -0.204091   -2.468562    0.191085    0.650714   -0.245952    0.002093
H    -1.362290    1.592532   -0.085403   -0.678894   -1.293095    0.115180
H     2.519350    0.930440   -0.134184    0.349898   -0.598483    0.036118
12
* Frequency(26) 1404.6594
C     1.621687    0.265380   -0.061313    0.023732    0.144007   -0.011434
C     1.388228   -1.013123    0.041112    0.083518   -0.010295   -0.001390
N     0.139968   -1.494062    0.109347    0.034800   -0.152393    0.010619
C    -0.945285   -0.936715    0.094568   -0.193946    0.454486   -0.029238
N    -0.859654    0.562759   -0.020336    0.291560    0.045980   -0.010977
C     0.588437    1.223204   -0.107252   -0.280325    0.034793    0.004532
O    -2.106738   -1.225057    0.145689   -0.039146   -0.110493    0.009278
O     0.537272    2.477545   -0.200480    0.030293   -0.096107    0.006470
H     2.354284   -1.556991    0.057448   -0.342913   -0.527977    0.048833
H    -0.222496   -2.461605    0.191026    0.650714   -0.245952    0.002093
H    -1.343088    1.629106   -0.088661   -0.678894   -1.293095    0.115180
H     2.509453    0.947368   -0.135205    0.349898   -0.598483    0.036118
12
* Frequency(26) 1404.6594
C     1.621913    0.266750   -0.061421    0.023732    0.144007   -0.011434
C     1.389022   -1.013221    0.041099    0.083518   -0.010295   -0.001390
N     0.140299   -1.495512    0.109448    0.034800   -0.152393    0.010619
C    -0.947130   -0.932390    0.094290   -0.193946    0.454486   -0.029238
N    -0.856880    0.563196   -0.020440    0.291560    0.045980   -0.010977
C     0.585770    1.223535   -0.107209   -0.280325    0.034793    0.004532
O    -2.107111   -1.226109    0.145777   -0.039146   -0.110493    0.009278
O     0.537560    2.476630   -0.200419    0.030293   -0.096107    0.006470
H     2.351022   -1.562014    0.057913   -0.342913   -0.527977    0.048833
H    -0.216304   -2.463945    0.191046    0.650714   -0.245952    0.002093
H    -1.349548    1.616803   -0.087565   -0.678894   -1.293095    0.115180
H     2.512782    0.941673   -0.134862    0.349898   -0.598483    0.036118
12
* Frequency(26) 1404.6594
C     1.623011    0.273415   -0.061951    0.023732    0.144007   -0.011434
C     1.392888   -1.013698    0.041034    0.083518   -0.010295   -0.001390
N     0.141910   -1.502565    0.109940    0.034800   -0.152393    0.010619
C    -0.956106   -0.911356    0.092936   -0.193946    0.454486   -0.029238
N    -0.843386    0.565324   -0.020948    0.291560    0.045980   -0.010977
C     0.572796    1.225145   -0.106999   -0.280325    0.034793    0.004532
O    -2.108922   -1.231222    0.146206   -0.039146   -0.110493    0.009278
O     0.538962    2.472182   -0.200119    0.030293   -0.096107    0.006470
H     2.335151   -1.586450    0.060173   -0.342913   -0.527977    0.048833
H    -0.186188   -2.475328    0.191142    0.650714   -0.245952    0.002093
H    -1.380968    1.556956   -0.082234   -0.678894   -1.293095    0.115180
H     2.528976    0.913975   -0.133190    0.349898   -0.598483    0.036118
12
* Frequency(26) 1404.6594
C     1.624863    0.284652   -0.062843    0.023732    0.144007   -0.011434
C     1.399405   -1.014501    0.040926    0.083518   -0.010295   -0.001390
N     0.144625   -1.514456    0.110769    0.034800   -0.152393    0.010619
C    -0.971241   -0.875891    0.090655   -0.193946    0.454486   -0.029238
N    -0.820635    0.568912   -0.021805    0.291560    0.045980   -0.010977
C     0.550921    1.227860   -0.106645   -0.280325    0.034793    0.004532
O    -2.111977   -1.239845    0.146930   -0.039146   -0.110493    0.009278
O     0.541326    2.464683   -0.199615    0.030293   -0.096107    0.006470
H     2.308392   -1.627650    0.063984   -0.342913   -0.527977    0.048833
H    -0.135411   -2.494521    0.191306    0.650714   -0.245952    0.002093
H    -1.433945    1.456051   -0.073246   -0.678894   -1.293095    0.115180
H     2.556280    0.867273   -0.130372    0.349898   -0.598483    0.036118
12
* Frequency(26) 1404.6594
C     1.627268    0.299244   -0.064001    0.023732    0.144007   -0.011434
C     1.407868   -1.015544    0.040785    0.083518   -0.010295   -0.001390
N     0.148151   -1.529898    0.111845    0.034800   -0.152393    0.010619
C    -0.990893   -0.829838    0.087692   -0.193946    0.454486   -0.029238
N    -0.791091    0.573572   -0.022917    0.291560    0.045980   -0.010977
C     0.522516    1.231386   -0.106186   -0.280325    0.034793    0.004532
O    -2.115944   -1.251041    0.147870   -0.039146   -0.110493    0.009278
O     0.544396    2.454944   -0.198959    0.030293   -0.096107    0.006470
H     2.273645   -1.681150    0.068932   -0.342913   -0.527977    0.048833
H    -0.069474   -2.519443    0.191518    0.650714   -0.245952    0.002093
H    -1.502737    1.325022   -0.061575   -0.678894   -1.293095    0.115180
H     2.591735    0.806629   -0.126712    0.349898   -0.598483    0.036118
12
* Frequency(26) 1404.6594
C     1.629965    0.315610   -0.065301    0.023732    0.144007   -0.011434
C     1.417359   -1.016714    0.040627    0.083518   -0.010295   -0.001390
N     0.152106   -1.547217    0.113051    0.034800   -0.152393    0.010619
C    -1.012934   -0.778188    0.084369   -0.193946    0.454486   -0.029238
N    -0.757957    0.578797   -0.024165    0.291560    0.045980   -0.010977
C     0.490659    1.235340   -0.105671   -0.280325    0.034793    0.004532
O    -2.120393   -1.263598    0.148925   -0.039146   -0.110493    0.009278
O     0.547838    2.444022   -0.198224    0.030293   -0.096107    0.006470
H     2.234675   -1.741152    0.074482   -0.342913   -0.527977    0.048833
H     0.004476   -2.547394    0.191756    0.650714   -0.245952    0.002093
H    -1.579890    1.178069   -0.048486   -0.678894   -1.293095    0.115180
H     2.631499    0.738614   -0.122607    0.349898   -0.598483    0.036118
