12
* (null), Energy   -1000.0000000
C     1.629965    0.315610   -0.065301    0.005844    0.012084    0.163168
C     1.417359   -1.016714    0.040627   -0.007399   -0.019730   -0.263966
N     0.152106   -1.547217    0.113051    0.000119    0.002091    0.020341
C    -1.012934   -0.778188    0.084369    0.001487    0.001881    0.030125
N    -0.757957    0.578797   -0.024165   -0.001741   -0.001942   -0.014214
C     0.490659    1.235340   -0.105671    0.000343    0.002319    0.026114
O    -2.120393   -1.263598    0.148925    0.000387    0.000075   -0.005913
O     0.547838    2.444022   -0.198224    0.000096    0.000072   -0.002689
H     2.234675   -1.741152    0.074482    0.041249    0.126509    1.691335
H     0.004476   -2.547394    0.191756   -0.003404   -0.008127   -0.116419
H    -1.579890    1.178069   -0.048486   -0.003645   -0.003616    0.008508
H     2.631499    0.738614   -0.122607   -0.022597   -0.078122   -1.001070
12
* Frequency(20)  979.6598
C     1.630629    0.316983   -0.046758    0.005844    0.012084    0.163168
C     1.416518   -1.018956    0.010629   -0.007399   -0.019730   -0.263966
N     0.152120   -1.546979    0.115363    0.000119    0.002091    0.020341
C    -1.012765   -0.777974    0.087793    0.001487    0.001881    0.030125
N    -0.758155    0.578576   -0.025780   -0.001741   -0.001942   -0.014214
C     0.490698    1.235603   -0.102703    0.000343    0.002319    0.026114
O    -2.120349   -1.263589    0.148253    0.000387    0.000075   -0.005913
O     0.547849    2.444030   -0.198529    0.000096    0.000072   -0.002689
H     2.239363   -1.726775    0.266693    0.041249    0.126509    1.691335
H     0.004090   -2.548318    0.178525   -0.003404   -0.008127   -0.116419
H    -1.580304    1.177658   -0.047519   -0.003645   -0.003616    0.008508
H     2.628931    0.729736   -0.236374   -0.022597   -0.078122   -1.001070
12
* Frequency(20)  979.6598
C     1.631221    0.318208   -0.030224    0.005844    0.012084    0.163168
C     1.415768   -1.020956   -0.016119   -0.007399   -0.019730   -0.263966
N     0.152132   -1.546767    0.117424    0.000119    0.002091    0.020341
C    -1.012615   -0.777783    0.090845    0.001487    0.001881    0.030125
N    -0.758331    0.578380   -0.027220   -0.001741   -0.001942   -0.014214
C     0.490732    1.235838   -0.100057    0.000343    0.002319    0.026114
O    -2.120309   -1.263582    0.147654    0.000387    0.000075   -0.005913
O     0.547859    2.444038   -0.198802    0.000096    0.000072   -0.002689
H     2.243542   -1.713955    0.438075    0.041249    0.126509    1.691335
H     0.003745   -2.549141    0.166729   -0.003404   -0.008127   -0.116419
H    -1.580673    1.177291   -0.046657   -0.003645   -0.003616    0.008508
H     2.626641    0.721820   -0.337812   -0.022597   -0.078122   -1.001070
12
* Frequency(20)  979.6598
C     1.631677    0.319151   -0.017491    0.005844    0.012084    0.163168
C     1.415191   -1.022495   -0.036717   -0.007399   -0.019730   -0.263966
N     0.152141   -1.546604    0.119011    0.000119    0.002091    0.020341
C    -1.012498   -0.777637    0.093196    0.001487    0.001881    0.030125
N    -0.758467    0.578228   -0.028329   -0.001741   -0.001942   -0.014214
C     0.490759    1.236019   -0.098019    0.000343    0.002319    0.026114
O    -2.120279   -1.263576    0.147192    0.000387    0.000075   -0.005913
O     0.547866    2.444043   -0.199012    0.000096    0.000072   -0.002689
H     2.246761   -1.704083    0.570057    0.041249    0.126509    1.691335
H     0.003479   -2.549776    0.157644   -0.003404   -0.008127   -0.116419
H    -1.580958    1.177009   -0.045993   -0.003645   -0.003616    0.008508
H     2.624878    0.715724   -0.415929   -0.022597   -0.078122   -1.001070
12
* Frequency(20)  979.6598
C     1.631948    0.319710   -0.009940    0.005844    0.012084    0.163168
C     1.414849   -1.023408   -0.048934   -0.007399   -0.019730   -0.263966
N     0.152147   -1.546507    0.119953    0.000119    0.002091    0.020341
C    -1.012430   -0.777550    0.094590    0.001487    0.001881    0.030125
N    -0.758548    0.578138   -0.028987   -0.001741   -0.001942   -0.014214
C     0.490775    1.236127   -0.096811    0.000343    0.002319    0.026114
O    -2.120261   -1.263572    0.146919    0.000387    0.000075   -0.005913
O     0.547871    2.444047   -0.199136    0.000096    0.000072   -0.002689
H     2.248670   -1.698228    0.648335    0.041249    0.126509    1.691335
H     0.003322   -2.550152    0.152256   -0.003404   -0.008127   -0.116419
H    -1.581127    1.176842   -0.045599   -0.003645   -0.003616    0.008508
H     2.623832    0.712108   -0.462260   -0.022597   -0.078122   -1.001070
12
* Frequency(20)  979.6598
C     1.632003    0.319825   -0.008387    0.005844    0.012084    0.163168
C     1.414778   -1.023596   -0.051446   -0.007399   -0.019730   -0.263966
N     0.152148   -1.546488    0.120146    0.000119    0.002091    0.020341
C    -1.012416   -0.777532    0.094877    0.001487    0.001881    0.030125
N    -0.758564    0.578120   -0.029123   -0.001741   -0.001942   -0.014214
C     0.490778    1.236149   -0.096562    0.000343    0.002319    0.026114
O    -2.120258   -1.263572    0.146862    0.000387    0.000075   -0.005913
O     0.547872    2.444047   -0.199162    0.000096    0.000072   -0.002689
H     2.249063   -1.697025    0.664427    0.041249    0.126509    1.691335
H     0.003289   -2.550229    0.151148   -0.003404   -0.008127   -0.116419
H    -1.581161    1.176807   -0.045518   -0.003645   -0.003616    0.008508
H     2.623617    0.711365   -0.471785   -0.022597   -0.078122   -1.001070
12
* Frequency(20)  979.6598
C     1.631838    0.319483   -0.013002    0.005844    0.012084    0.163168
C     1.414988   -1.023038   -0.043980   -0.007399   -0.019730   -0.263966
N     0.152144   -1.546547    0.119571    0.000119    0.002091    0.020341
C    -1.012458   -0.777585    0.094025    0.001487    0.001881    0.030125
N    -0.758515    0.578175   -0.028720   -0.001741   -0.001942   -0.014214
C     0.490769    1.236083   -0.097301    0.000343    0.002319    0.026114
O    -2.120268   -1.263574    0.147030    0.000387    0.000075   -0.005913
O     0.547869    2.444045   -0.199086    0.000096    0.000072   -0.002689
H     2.247896   -1.700603    0.616589    0.041249    0.126509    1.691335
H     0.003385   -2.549999    0.154441   -0.003404   -0.008127   -0.116419
H    -1.581058    1.176910   -0.045759   -0.003645   -0.003616    0.008508
H     2.624256    0.713575   -0.443471   -0.022597   -0.078122   -1.001070
12
* Frequency(20)  979.6598
C     1.631470    0.318722   -0.023285    0.005844    0.012084    0.163168
C     1.415454   -1.021795   -0.027345   -0.007399   -0.019730   -0.263966
N     0.152137   -1.546678    0.118289    0.000119    0.002091    0.020341
C    -1.012551   -0.777704    0.092127    0.001487    0.001881    0.030125
N    -0.758405    0.578297   -0.027825   -0.001741   -0.001942   -0.014214
C     0.490747    1.235937   -0.098946    0.000343    0.002319    0.026114
O    -2.120293   -1.263578    0.147402    0.000387    0.000075   -0.005913
O     0.547863    2.444041   -0.198916    0.000096    0.000072   -0.002689
H     2.245297   -1.708575    0.510006    0.041249    0.126509    1.691335
H     0.003600   -2.549487    0.161778   -0.003404   -0.008127   -0.116419
H    -1.580828    1.177137   -0.046295   -0.003645   -0.003616    0.008508
H     2.625680    0.718498   -0.380386   -0.022597   -0.078122   -1.001070
12
* Frequency(20)  979.6598
C     1.630938    0.317623   -0.038120    0.005844    0.012084    0.163168
C     1.416126   -1.020001   -0.003345   -0.007399   -0.019730   -0.263966
N     0.152126   -1.546869    0.116440    0.000119    0.002091    0.020341
C    -1.012686   -0.777875    0.089388    0.001487    0.001881    0.030125
N    -0.758247    0.578473   -0.026532   -0.001741   -0.001942   -0.014214
C     0.490716    1.235726   -0.101321    0.000343    0.002319    0.026114
O    -2.120328   -1.263585    0.147940    0.000387    0.000075   -0.005913
O     0.547854    2.444034   -0.198672    0.000096    0.000072   -0.002689
H     2.241546   -1.720078    0.356227    0.041249    0.126509    1.691335
H     0.003909   -2.548748    0.172363   -0.003404   -0.008127   -0.116419
H    -1.580497    1.177466   -0.047068   -0.003645   -0.003616    0.008508
H     2.627735    0.725601   -0.289367   -0.022597   -0.078122   -1.001070
12
* Frequency(20)  979.6598
C     1.630302    0.316306   -0.055901    0.005844    0.012084    0.163168
C     1.416933   -1.017851    0.025420   -0.007399   -0.019730   -0.263966
N     0.152113   -1.547096    0.114223    0.000119    0.002091    0.020341
C    -1.012849   -0.778079    0.086105    0.001487    0.001881    0.030125
N    -0.758057    0.578685   -0.024984   -0.001741   -0.001942   -0.014214
C     0.490678    1.235473   -0.104166    0.000343    0.002319    0.026114
O    -2.120370   -1.263593    0.148584    0.000387    0.000075   -0.005913
O     0.547844    2.444026   -0.198379    0.000096    0.000072   -0.002689
H     2.237051   -1.733864    0.171916    0.041249    0.126509    1.691335
H     0.004280   -2.547862    0.185049   -0.003404   -0.008127   -0.116419
H    -1.580100    1.177860   -0.047995   -0.003645   -0.003616    0.008508
H     2.630197    0.734114   -0.180277   -0.022597   -0.078122   -1.001070
12
* Frequency(20)  979.6598
C     1.629628    0.314914   -0.074701    0.005844    0.012084    0.163168
C     1.417785   -1.015578    0.055834   -0.007399   -0.019730   -0.263966
N     0.152099   -1.547337    0.111880    0.000119    0.002091    0.020341
C    -1.013020   -0.778296    0.082634    0.001487    0.001881    0.030125
N    -0.757856    0.578909   -0.023346   -0.001741   -0.001942   -0.014214
C     0.490639    1.235206   -0.107175    0.000343    0.002319    0.026114
O    -2.120415   -1.263602    0.149265    0.000387    0.000075   -0.005913
O     0.547833    2.444018   -0.198069    0.000096    0.000072   -0.002689
H     2.232299   -1.748440   -0.022953    0.041249    0.126509    1.691335
H     0.004672   -2.546926    0.198462   -0.003404   -0.008127   -0.116419
H    -1.579680    1.178277   -0.048976   -0.003645   -0.003616    0.008508
H     2.632801    0.743115   -0.064937   -0.022597   -0.078122   -1.001070
12
* Frequency(20)  979.6598
C     1.628992    0.313597   -0.092482    0.005844    0.012084    0.163168
C     1.418592   -1.013428    0.084599   -0.007399   -0.019730   -0.263966
N     0.152086   -1.547565    0.109663    0.000119    0.002091    0.020341
C    -1.013182   -0.778501    0.079351    0.001487    0.001881    0.030125
N    -0.757667    0.579120   -0.021797   -0.001741   -0.001942   -0.014214
C     0.490601    1.234954   -0.110021    0.000343    0.002319    0.026114
O    -2.120457   -1.263610    0.149910    0.000387    0.000075   -0.005913
O     0.547823    2.444010   -0.197776    0.000096    0.000072   -0.002689
H     2.227804   -1.762226   -0.207264    0.041249    0.126509    1.691335
H     0.005043   -2.546040    0.211149   -0.003404   -0.008127   -0.116419
H    -1.579283    1.178671   -0.049903   -0.003645   -0.003616    0.008508
H     2.635263    0.751628    0.044153   -0.022597   -0.078122   -1.001070
12
* Frequency(20)  979.6598
C     1.628460    0.312498   -0.107317    0.005844    0.012084    0.163168
C     1.419264   -1.011634    0.108599   -0.007399   -0.019730   -0.263966
N     0.152076   -1.547755    0.107814    0.000119    0.002091    0.020341
C    -1.013317   -0.778672    0.076612    0.001487    0.001881    0.030125
N    -0.757508    0.579297   -0.020505   -0.001741   -0.001942   -0.014214
C     0.490570    1.234743   -0.112395    0.000343    0.002319    0.026114
O    -2.120492   -1.263617    0.150447    0.000387    0.000075   -0.005913
O     0.547814    2.444003   -0.197531    0.000096    0.000072   -0.002689
H     2.224053   -1.773728   -0.361043    0.041249    0.126509    1.691335
H     0.005353   -2.545301    0.221734   -0.003404   -0.008127   -0.116419
H    -1.578951    1.179000   -0.050676   -0.003645   -0.003616    0.008508
H     2.637318    0.758731    0.135172   -0.022597   -0.078122   -1.001070
12
* Frequency(20)  979.6598
C     1.628092    0.311737   -0.117599    0.005844    0.012084    0.163168
C     1.419731   -1.010391    0.125234   -0.007399   -0.019730   -0.263966
N     0.152068   -1.547887    0.106532    0.000119    0.002091    0.020341
C    -1.013411   -0.778791    0.074714    0.001487    0.001881    0.030125
N    -0.757399    0.579419   -0.019609   -0.001741   -0.001942   -0.014214
C     0.490549    1.234597   -0.114041    0.000343    0.002319    0.026114
O    -2.120517   -1.263622    0.150820    0.000387    0.000075   -0.005913
O     0.547808    2.443999   -0.197362    0.000096    0.000072   -0.002689
H     2.221454   -1.781700   -0.467626    0.041249    0.126509    1.691335
H     0.005567   -2.544789    0.229070   -0.003404   -0.008127   -0.116419
H    -1.578721    1.179228   -0.051213   -0.003645   -0.003616    0.008508
H     2.638742    0.763654    0.198256   -0.022597   -0.078122   -1.001070
12
* Frequency(20)  979.6598
C     1.627927    0.311395   -0.122214    0.005844    0.012084    0.163168
C     1.419940   -1.009832    0.132700   -0.007399   -0.019730   -0.263966
N     0.152065   -1.547946    0.105956    0.000119    0.002091    0.020341
C    -1.013453   -0.778844    0.073862    0.001487    0.001881    0.030125
N    -0.757349    0.579474   -0.019207   -0.001741   -0.001942   -0.014214
C     0.490539    1.234531   -0.114780    0.000343    0.002319    0.026114
O    -2.120528   -1.263624    0.150987    0.000387    0.000075   -0.005913
O     0.547805    2.443997   -0.197286    0.000096    0.000072   -0.002689
H     2.220287   -1.785279   -0.515464    0.041249    0.126509    1.691335
H     0.005664   -2.544559    0.232363   -0.003404   -0.008127   -0.116419
H    -1.578618    1.179330   -0.051453   -0.003645   -0.003616    0.008508
H     2.639381    0.765864    0.226571   -0.022597   -0.078122   -1.001070
12
* Frequency(20)  979.6598
C     1.627982    0.311510   -0.120662    0.005844    0.012084    0.163168
C     1.419869   -1.010020    0.130188   -0.007399   -0.019730   -0.263966
N     0.152066   -1.547926    0.106150    0.000119    0.002091    0.020341
C    -1.013439   -0.778826    0.074148    0.001487    0.001881    0.030125
N    -0.757366    0.579456   -0.019342   -0.001741   -0.001942   -0.014214
C     0.490542    1.234553   -0.114531    0.000343    0.002319    0.026114
O    -2.120524   -1.263623    0.150931    0.000387    0.000075   -0.005913
O     0.547806    2.443997   -0.197311    0.000096    0.000072   -0.002689
H     2.220679   -1.784075   -0.499372    0.041249    0.126509    1.691335
H     0.005631   -2.544637    0.231255   -0.003404   -0.008127   -0.116419
H    -1.578653    1.179295   -0.051372   -0.003645   -0.003616    0.008508
H     2.639166    0.765120    0.217046   -0.022597   -0.078122   -1.001070
12
* Frequency(20)  979.6598
C     1.628253    0.312069   -0.113110    0.005844    0.012084    0.163168
C     1.419527   -1.010933    0.117971   -0.007399   -0.019730   -0.263966
N     0.152071   -1.547830    0.107091    0.000119    0.002091    0.020341
C    -1.013370   -0.778739    0.075543    0.001487    0.001881    0.030125
N    -0.757446    0.579366   -0.020000   -0.001741   -0.001942   -0.014214
C     0.490558    1.234660   -0.113322    0.000343    0.002319    0.026114
O    -2.120506   -1.263620    0.150657    0.000387    0.000075   -0.005913
O     0.547810    2.444001   -0.197436    0.000096    0.000072   -0.002689
H     2.222589   -1.778220   -0.421094    0.041249    0.126509    1.691335
H     0.005474   -2.545013    0.225867   -0.003404   -0.008127   -0.116419
H    -1.578822    1.179128   -0.050978   -0.003645   -0.003616    0.008508
H     2.638120    0.761505    0.170715   -0.022597   -0.078122   -1.001070
12
* Frequency(20)  979.6598
C     1.628709    0.313012   -0.100378    0.005844    0.012084    0.163168
C     1.418950   -1.012473    0.097373   -0.007399   -0.019730   -0.263966
N     0.152081   -1.547667    0.108679    0.000119    0.002091    0.020341
C    -1.013254   -0.778592    0.077893    0.001487    0.001881    0.030125
N    -0.757582    0.579214   -0.021109   -0.001741   -0.001942   -0.014214
C     0.490585    1.234841   -0.111285    0.000343    0.002319    0.026114
O    -2.120476   -1.263614    0.150196    0.000387    0.000075   -0.005913
O     0.547818    2.444006   -0.197645    0.000096    0.000072   -0.002689
H     2.225807   -1.768348   -0.289112    0.041249    0.126509    1.691335
H     0.005208   -2.545647    0.216783   -0.003404   -0.008127   -0.116419
H    -1.579106    1.178846   -0.050315   -0.003645   -0.003616    0.008508
H     2.636357    0.755408    0.092597   -0.022597   -0.078122   -1.001070
12
* Frequency(20)  979.6598
C     1.629301    0.314237   -0.083844    0.005844    0.012084    0.163168
C     1.418200   -1.014472    0.070625   -0.007399   -0.019730   -0.263966
N     0.152093   -1.547455    0.110740    0.000119    0.002091    0.020341
C    -1.013103   -0.778402    0.080946    0.001487    0.001881    0.030125
N    -0.757759    0.579018   -0.022549   -0.001741   -0.001942   -0.014214
C     0.490620    1.235076   -0.108639    0.000343    0.002319    0.026114
O    -2.120437   -1.263606    0.149597    0.000387    0.000075   -0.005913
O     0.547828    2.444014   -0.197918    0.000096    0.000072   -0.002689
H     2.229987   -1.755529   -0.117730    0.041249    0.126509    1.691335
H     0.004863   -2.546471    0.204986   -0.003404   -0.008127   -0.116419
H    -1.579476    1.178479   -0.049452   -0.003645   -0.003616    0.008508
H     2.634067    0.747492   -0.008841   -0.022597   -0.078122   -1.001070
12
* Frequency(20)  979.6598
C     1.629965    0.315610   -0.065301    0.005844    0.012084    0.163168
C     1.417359   -1.016714    0.040627   -0.007399   -0.019730   -0.263966
N     0.152106   -1.547217    0.113051    0.000119    0.002091    0.020341
C    -1.012934   -0.778188    0.084369    0.001487    0.001881    0.030125
N    -0.757957    0.578797   -0.024165   -0.001741   -0.001942   -0.014214
C     0.490659    1.235340   -0.105671    0.000343    0.002319    0.026114
O    -2.120393   -1.263598    0.148925    0.000387    0.000075   -0.005913
O     0.547838    2.444022   -0.198224    0.000096    0.000072   -0.002689
H     2.234675   -1.741152    0.074482    0.041249    0.126509    1.691335
H     0.004476   -2.547394    0.191756   -0.003404   -0.008127   -0.116419
H    -1.579890    1.178069   -0.048486   -0.003645   -0.003616    0.008508
H     2.631499    0.738614   -0.122607   -0.022597   -0.078122   -1.001070
