12
* (null), Energy   -1000.0000000
C     1.326706    0.515754   -0.072626   -0.064521    0.063841   -0.003159
C     1.114284   -0.816584    0.032594    0.109031   -0.015315   -0.001785
N    -0.151041   -1.347120    0.103530   -0.065180   -0.054928    0.005693
C    -1.315628   -0.577682    0.076752   -0.068963    0.245464   -0.016358
N    -1.060936    0.779065   -0.032267   -0.099559   -0.215444    0.018755
C     0.187706    1.435734   -0.112929    0.241611    0.020455   -0.007689
O    -2.423226   -1.063291    0.142349    0.020366   -0.007748   -0.000041
O     0.244598    2.644464   -0.204665   -0.007983   -0.010742    0.001015
H     1.931646   -1.540867    0.066907    0.997094    0.975358   -0.098158
H    -0.299216   -2.347153    0.186398   -1.131786    0.084886    0.022032
H    -1.882973    1.378347   -0.056429   -0.384135   -0.612332    0.055546
H     2.328081    0.939334   -0.129643    0.023864   -0.144207    0.010838
12
* Frequency(23) 1197.7123
C     1.319373    0.523009   -0.072985   -0.064521    0.063841   -0.003159
C     1.126674   -0.818324    0.032391    0.109031   -0.015315   -0.001785
N    -0.158449   -1.353362    0.104177   -0.065180   -0.054928    0.005693
C    -1.323465   -0.549786    0.074893   -0.068963    0.245464   -0.016358
N    -1.072250    0.754581   -0.030136   -0.099559   -0.215444    0.018755
C     0.215164    1.438059   -0.113803    0.241611    0.020455   -0.007689
O    -2.420912   -1.064171    0.142344    0.020366   -0.007748   -0.000041
O     0.243691    2.643243   -0.204550   -0.007983   -0.010742    0.001015
H     2.044961   -1.430023    0.055752    0.997094    0.975358   -0.098158
H    -0.427838   -2.337506    0.188901   -1.131786    0.084886    0.022032
H    -1.926628    1.308758   -0.050116   -0.384135   -0.612332    0.055546
H     2.330793    0.922945   -0.128412    0.023864   -0.144207    0.010838
12
* Frequency(23) 1197.7123
C     1.312836    0.529478   -0.073305   -0.064521    0.063841   -0.003159
C     1.137722   -0.819876    0.032211    0.109031   -0.015315   -0.001785
N    -0.165053   -1.358928    0.104754   -0.065180   -0.054928    0.005693
C    -1.330453   -0.524913    0.073235   -0.068963    0.245464   -0.016358
N    -1.082338    0.732750   -0.028235   -0.099559   -0.215444    0.018755
C     0.239646    1.440131   -0.114582    0.241611    0.020455   -0.007689
O    -2.418848   -1.064957    0.142340    0.020366   -0.007748   -0.000041
O     0.242882    2.642155   -0.204447   -0.007983   -0.010742    0.001015
H     2.145996   -1.331190    0.045806    0.997094    0.975358   -0.098158
H    -0.542521   -2.328905    0.191134   -1.131786    0.084886    0.022032
H    -1.965552    1.246711   -0.044488   -0.384135   -0.612332    0.055546
H     2.333211    0.908333   -0.127313    0.023864   -0.144207    0.010838
12
* Frequency(23) 1197.7123
C     1.307801    0.534459   -0.073551   -0.064521    0.063841   -0.003159
C     1.146231   -0.821071    0.032071    0.109031   -0.015315   -0.001785
N    -0.170140   -1.363214    0.105198   -0.065180   -0.054928    0.005693
C    -1.335835   -0.505759    0.071959   -0.068963    0.245464   -0.016358
N    -1.090107    0.715938   -0.026772   -0.099559   -0.215444    0.018755
C     0.258500    1.441728   -0.115182    0.241611    0.020455   -0.007689
O    -2.417259   -1.065561    0.142336    0.020366   -0.007748   -0.000041
O     0.242259    2.641317   -0.204368   -0.007983   -0.010742    0.001015
H     2.223803   -1.255079    0.038146    0.997094    0.975358   -0.098158
H    -0.630839   -2.322281    0.192853   -1.131786    0.084886    0.022032
H    -1.995528    1.198928   -0.040153   -0.384135   -0.612332    0.055546
H     2.335073    0.897080   -0.126468    0.023864   -0.144207    0.010838
12
* Frequency(23) 1197.7123
C     1.304814    0.537414   -0.073698   -0.064521    0.063841   -0.003159
C     1.151277   -0.821780    0.031989    0.109031   -0.015315   -0.001785
N    -0.173156   -1.365757    0.105461   -0.065180   -0.054928    0.005693
C    -1.339026   -0.494398    0.071202   -0.068963    0.245464   -0.016358
N    -1.094715    0.705967   -0.025904   -0.099559   -0.215444    0.018755
C     0.269682    1.442674   -0.115538    0.241611    0.020455   -0.007689
O    -2.416316   -1.065920    0.142335    0.020366   -0.007748   -0.000041
O     0.241890    2.640820   -0.204321   -0.007983   -0.010742    0.001015
H     2.269950   -1.209938    0.033603    0.997094    0.975358   -0.098158
H    -0.683220   -2.318352    0.193873   -1.131786    0.084886    0.022032
H    -2.013306    1.170588   -0.037583   -0.384135   -0.612332    0.055546
H     2.336178    0.890406   -0.125966    0.023864   -0.144207    0.010838
12
* Frequency(23) 1197.7123
C     1.304201    0.538022   -0.073728   -0.064521    0.063841   -0.003159
C     1.152314   -0.821926    0.031972    0.109031   -0.015315   -0.001785
N    -0.173776   -1.366279    0.105516   -0.065180   -0.054928    0.005693
C    -1.339683   -0.492063    0.071046   -0.068963    0.245464   -0.016358
N    -1.095662    0.703917   -0.025725   -0.099559   -0.215444    0.018755
C     0.271981    1.442869   -0.115611    0.241611    0.020455   -0.007689
O    -2.416122   -1.065994    0.142334    0.020366   -0.007748   -0.000041
O     0.241814    2.640717   -0.204311   -0.007983   -0.010742    0.001015
H     2.279437   -1.200658    0.032669    0.997094    0.975358   -0.098158
H    -0.693988   -2.317545    0.194082   -1.131786    0.084886    0.022032
H    -2.016961    1.164762   -0.037054   -0.384135   -0.612332    0.055546
H     2.336405    0.889034   -0.125863    0.023864   -0.144207    0.010838
12
* Frequency(23) 1197.7123
C     1.306026    0.536216   -0.073638   -0.064521    0.063841   -0.003159
C     1.149230   -0.821493    0.032022    0.109031   -0.015315   -0.001785
N    -0.171933   -1.364726    0.105355   -0.065180   -0.054928    0.005693
C    -1.337732   -0.499005    0.071509   -0.068963    0.245464   -0.016358
N    -1.092846    0.710010   -0.026256   -0.099559   -0.215444    0.018755
C     0.265148    1.442290   -0.115394    0.241611    0.020455   -0.007689
O    -2.416698   -1.065774    0.142335    0.020366   -0.007748   -0.000041
O     0.242040    2.641021   -0.204340   -0.007983   -0.010742    0.001015
H     2.251235   -1.228245    0.035445    0.997094    0.975358   -0.098158
H    -0.661977   -2.319945    0.193459   -1.131786    0.084886    0.022032
H    -2.006096    1.182082   -0.038625   -0.384135   -0.612332    0.055546
H     2.335730    0.893113   -0.126170    0.023864   -0.144207    0.010838
12
* Frequency(23) 1197.7123
C     1.310091    0.532193   -0.073439   -0.064521    0.063841   -0.003159
C     1.142359   -0.820527    0.032135    0.109031   -0.015315   -0.001785
N    -0.167825   -1.361264    0.104996   -0.065180   -0.054928    0.005693
C    -1.333386   -0.514474    0.072540   -0.068963    0.245464   -0.016358
N    -1.086572    0.723587   -0.027438   -0.099559   -0.215444    0.018755
C     0.249922    1.441001   -0.114909    0.241611    0.020455   -0.007689
O    -2.417982   -1.065286    0.142338    0.020366   -0.007748   -0.000041
O     0.242543    2.641698   -0.204404   -0.007983   -0.010742    0.001015
H     2.188401   -1.289709    0.041631    0.997094    0.975358   -0.098158
H    -0.590655   -2.325295    0.192071   -1.131786    0.084886    0.022032
H    -1.981889    1.220669   -0.042126   -0.384135   -0.612332    0.055546
H     2.334226    0.902200   -0.126853    0.023864   -0.144207    0.010838
12
* Frequency(23) 1197.7123
C     1.315958    0.526388   -0.073152   -0.064521    0.063841   -0.003159
C     1.132446   -0.819135    0.032297    0.109031   -0.015315   -0.001785
N    -0.161899   -1.356270    0.104478   -0.065180   -0.054928    0.005693
C    -1.327116   -0.536792    0.074027   -0.068963    0.245464   -0.016358
N    -1.077520    0.743176   -0.029143   -0.099559   -0.215444    0.018755
C     0.227954    1.439142   -0.114210    0.241611    0.020455   -0.007689
O    -2.419833   -1.064582    0.142342    0.020366   -0.007748   -0.000041
O     0.243268    2.642675   -0.204496   -0.007983   -0.010742    0.001015
H     2.097744   -1.378391    0.050556    0.997094    0.975358   -0.098158
H    -0.487751   -2.333013    0.190068   -1.131786    0.084886    0.022032
H    -1.946963    1.276343   -0.047176   -0.384135   -0.612332    0.055546
H     2.332056    0.915312   -0.127838    0.023864   -0.144207    0.010838
12
* Frequency(23) 1197.7123
C     1.322989    0.519431   -0.072808   -0.064521    0.063841   -0.003159
C     1.120565   -0.817466    0.032491    0.109031   -0.015315   -0.001785
N    -0.154796   -1.350284    0.103858   -0.065180   -0.054928    0.005693
C    -1.319601   -0.563541    0.075810   -0.068963    0.245464   -0.016358
N    -1.066671    0.766653   -0.031187   -0.099559   -0.215444    0.018755
C     0.201625    1.436912   -0.113372    0.241611    0.020455   -0.007689
O    -2.422053   -1.063737    0.142346    0.020366   -0.007748   -0.000041
O     0.244138    2.643845   -0.204607   -0.007983   -0.010742    0.001015
H     1.989087   -1.484679    0.061253    0.997094    0.975358   -0.098158
H    -0.364416   -2.342263    0.187667   -1.131786    0.084886    0.022032
H    -1.905102    1.343071   -0.053229   -0.384135   -0.612332    0.055546
H     2.329456    0.931026   -0.129019    0.023864   -0.144207    0.010838
12
* Frequency(23) 1197.7123
C     1.330423    0.512076   -0.072444   -0.064521    0.063841   -0.003159
C     1.108002   -0.815701    0.032697    0.109031   -0.015315   -0.001785
N    -0.147286   -1.343956    0.103202   -0.065180   -0.054928    0.005693
C    -1.311655   -0.591823    0.077694   -0.068963    0.245464   -0.016358
N    -1.055200    0.791476   -0.033348   -0.099559   -0.215444    0.018755
C     0.173787    1.434556   -0.112486    0.241611    0.020455   -0.007689
O    -2.424399   -1.062844    0.142351    0.020366   -0.007748   -0.000041
O     0.245058    2.645083   -0.204724   -0.007983   -0.010742    0.001015
H     1.874205   -1.597056    0.072562    0.997094    0.975358   -0.098158
H    -0.234016   -2.352043    0.185129   -1.131786    0.084886    0.022032
H    -1.860844    1.413622   -0.059629   -0.384135   -0.612332    0.055546
H     2.326706    0.947641   -0.130268    0.023864   -0.144207    0.010838
12
* Frequency(23) 1197.7123
C     1.337454    0.505119   -0.072100   -0.064521    0.063841   -0.003159
C     1.096121   -0.814032    0.032892    0.109031   -0.015315   -0.001785
N    -0.140183   -1.337970    0.102581   -0.065180   -0.054928    0.005693
C    -1.304140   -0.618572    0.079477   -0.068963    0.245464   -0.016358
N    -1.044351    0.814954   -0.035391   -0.099559   -0.215444    0.018755
C     0.147458    1.432327   -0.111649    0.241611    0.020455   -0.007689
O    -2.426619   -1.062000    0.142355    0.020366   -0.007748   -0.000041
O     0.245928    2.646254   -0.204834   -0.007983   -0.010742    0.001015
H     1.765549   -1.703344    0.083259    0.997094    0.975358   -0.098158
H    -0.110682   -2.361294    0.182728   -1.131786    0.084886    0.022032
H    -1.818983    1.480350   -0.065682   -0.384135   -0.612332    0.055546
H     2.324105    0.963356   -0.131449    0.023864   -0.144207    0.010838
12
* Frequency(23) 1197.7123
C     1.343320    0.499314   -0.071812   -0.064521    0.063841   -0.003159
C     1.086208   -0.812640    0.033054    0.109031   -0.015315   -0.001785
N    -0.134257   -1.332976    0.102064   -0.065180   -0.054928    0.005693
C    -1.297870   -0.640890    0.080964   -0.068963    0.245464   -0.016358
N    -1.035299    0.834542   -0.037096   -0.099559   -0.215444    0.018755
C     0.125490    1.430467   -0.110949    0.241611    0.020455   -0.007689
O    -2.428470   -1.061296    0.142359    0.020366   -0.007748   -0.000041
O     0.246654    2.647230   -0.204926   -0.007983   -0.010742    0.001015
H     1.674891   -1.792025    0.092183    0.997094    0.975358   -0.098158
H    -0.007778   -2.369012    0.180725   -1.131786    0.084886    0.022032
H    -1.784057    1.536024   -0.070732   -0.384135   -0.612332    0.055546
H     2.321936    0.976468   -0.132434    0.023864   -0.144207    0.010838
12
* Frequency(23) 1197.7123
C     1.347386    0.495291   -0.071613   -0.064521    0.063841   -0.003159
C     1.079337   -0.811675    0.033166    0.109031   -0.015315   -0.001785
N    -0.130150   -1.329514    0.101705   -0.065180   -0.054928    0.005693
C    -1.293524   -0.656358    0.081995   -0.068963    0.245464   -0.016358
N    -1.029025    0.848119   -0.038278   -0.099559   -0.215444    0.018755
C     0.110265    1.429178   -0.110465    0.241611    0.020455   -0.007689
O    -2.429754   -1.060807    0.142362    0.020366   -0.007748   -0.000041
O     0.247157    2.647907   -0.204990   -0.007983   -0.010742    0.001015
H     1.612057   -1.853490    0.098369    0.997094    0.975358   -0.098158
H     0.063544   -2.374361    0.179336   -1.131786    0.084886    0.022032
H    -1.759850    1.574612   -0.074232   -0.384135   -0.612332    0.055546
H     2.320432    0.985555   -0.133117    0.023864   -0.144207    0.010838
12
* Frequency(23) 1197.7123
C     1.349211    0.493486   -0.071524   -0.064521    0.063841   -0.003159
C     1.076253   -0.811242    0.033217    0.109031   -0.015315   -0.001785
N    -0.128306   -1.327961    0.101544   -0.065180   -0.054928    0.005693
C    -1.291574   -0.663301    0.082458   -0.068963    0.245464   -0.016358
N    -1.026209    0.854212   -0.038809   -0.099559   -0.215444    0.018755
C     0.103431    1.428599   -0.110247    0.241611    0.020455   -0.007689
O    -2.430330   -1.060588    0.142363    0.020366   -0.007748   -0.000041
O     0.247383    2.648211   -0.205019   -0.007983   -0.010742    0.001015
H     1.583855   -1.881077    0.101145    0.997094    0.975358   -0.098158
H     0.095556   -2.376762    0.178713   -1.131786    0.084886    0.022032
H    -1.748985    1.591931   -0.075803   -0.384135   -0.612332    0.055546
H     2.319757    0.989634   -0.133424    0.023864   -0.144207    0.010838
12
* Frequency(23) 1197.7123
C     1.348597    0.494093   -0.071554   -0.064521    0.063841   -0.003159
C     1.077290   -0.811387    0.033200    0.109031   -0.015315   -0.001785
N    -0.128926   -1.328483    0.101598   -0.065180   -0.054928    0.005693
C    -1.292230   -0.660965    0.082302   -0.068963    0.245464   -0.016358
N    -1.027156    0.852163   -0.038630   -0.099559   -0.215444    0.018755
C     0.105730    1.428794   -0.110321    0.241611    0.020455   -0.007689
O    -2.430136   -1.060662    0.142363    0.020366   -0.007748   -0.000041
O     0.247307    2.648109   -0.205010   -0.007983   -0.010742    0.001015
H     1.593342   -1.871797    0.100211    0.997094    0.975358   -0.098158
H     0.084787   -2.375954    0.178923   -1.131786    0.084886    0.022032
H    -1.752640    1.586105   -0.075275   -0.384135   -0.612332    0.055546
H     2.319984    0.988262   -0.133320    0.023864   -0.144207    0.010838
12
* Frequency(23) 1197.7123
C     1.345611    0.497048   -0.071700   -0.064521    0.063841   -0.003159
C     1.082336   -0.812096    0.033117    0.109031   -0.015315   -0.001785
N    -0.131943   -1.331026    0.101862   -0.065180   -0.054928    0.005693
C    -1.295422   -0.649605    0.081545   -0.068963    0.245464   -0.016358
N    -1.031764    0.842191   -0.037762   -0.099559   -0.215444    0.018755
C     0.116912    1.429740   -0.110676    0.241611    0.020455   -0.007689
O    -2.429194   -1.061020    0.142361    0.020366   -0.007748   -0.000041
O     0.246937    2.647612   -0.204963   -0.007983   -0.010742    0.001015
H     1.639489   -1.826655    0.095669    0.997094    0.975358   -0.098158
H     0.032406   -2.372026    0.179942   -1.131786    0.084886    0.022032
H    -1.770418    1.557765   -0.072704   -0.384135   -0.612332    0.055546
H     2.321088    0.981588   -0.132819    0.023864   -0.144207    0.010838
12
* Frequency(23) 1197.7123
C     1.340576    0.502029   -0.071947   -0.064521    0.063841   -0.003159
C     1.090845   -0.813291    0.032978    0.109031   -0.015315   -0.001785
N    -0.137029   -1.335312    0.102306   -0.065180   -0.054928    0.005693
C    -1.300803   -0.630450    0.080269   -0.068963    0.245464   -0.016358
N    -1.039533    0.825380   -0.036299   -0.099559   -0.215444    0.018755
C     0.135766    1.431337   -0.111276    0.241611    0.020455   -0.007689
O    -2.427604   -1.061625    0.142357    0.020366   -0.007748   -0.000041
O     0.246314    2.646773   -0.204883   -0.007983   -0.010742    0.001015
H     1.717296   -1.750545    0.088009    0.997094    0.975358   -0.098158
H    -0.055911   -2.365402    0.181661   -1.131786    0.084886    0.022032
H    -1.800394    1.509983   -0.068370   -0.384135   -0.612332    0.055546
H     2.322951    0.970335   -0.131973    0.023864   -0.144207    0.010838
12
* Frequency(23) 1197.7123
C     1.334038    0.508498   -0.072267   -0.064521    0.063841   -0.003159
C     1.101893   -0.814843    0.032797    0.109031   -0.015315   -0.001785
N    -0.143634   -1.340878    0.102883   -0.065180   -0.054928    0.005693
C    -1.307791   -0.605578    0.078611   -0.068963    0.245464   -0.016358
N    -1.049621    0.803549   -0.034398   -0.099559   -0.215444    0.018755
C     0.160248    1.433409   -0.112056    0.241611    0.020455   -0.007689
O    -2.425541   -1.062410    0.142353    0.020366   -0.007748   -0.000041
O     0.245505    2.645685   -0.204780   -0.007983   -0.010742    0.001015
H     1.818332   -1.651712    0.078062    0.997094    0.975358   -0.098158
H    -0.170595   -2.356800    0.183894   -1.131786    0.084886    0.022032
H    -1.839318    1.447935   -0.062741   -0.384135   -0.612332    0.055546
H     2.325369    0.955722   -0.130875    0.023864   -0.144207    0.010838
12
* Frequency(23) 1197.7123
C     1.326706    0.515754   -0.072626   -0.064521    0.063841   -0.003159
C     1.114284   -0.816584    0.032594    0.109031   -0.015315   -0.001785
N    -0.151041   -1.347120    0.103530   -0.065180   -0.054928    0.005693
C    -1.315628   -0.577682    0.076752   -0.068963    0.245464   -0.016358
N    -1.060936    0.779065   -0.032267   -0.099559   -0.215444    0.018755
C     0.187706    1.435734   -0.112929    0.241611    0.020455   -0.007689
O    -2.423226   -1.063291    0.142349    0.020366   -0.007748   -0.000041
O     0.244598    2.644464   -0.204665   -0.007983   -0.010742    0.001015
H     1.931646   -1.540867    0.066907    0.997094    0.975358   -0.098158
H    -0.299216   -2.347153    0.186398   -1.131786    0.084886    0.022032
H    -1.882973    1.378347   -0.056429   -0.384135   -0.612332    0.055546
H     2.328081    0.939334   -0.129643    0.023864   -0.144207    0.010838
