12
* (null), Energy   -1000.0000000
C     1.326706    0.515754   -0.072626    0.051054    0.445944   -0.034314
C     1.114284   -0.816584    0.032594    0.077170    0.499203   -0.039584
N    -0.151041   -1.347120    0.103530    0.146013   -0.133962    0.001804
C    -1.315628   -0.577682    0.076752   -0.235263   -0.488279    0.044168
N    -1.060936    0.779065   -0.032267    0.047148   -0.421891    0.030254
C     0.187706    1.435734   -0.112929   -0.028002   -0.025397    0.003433
O    -2.423226   -1.063291    0.142349   -0.588778    0.186620    0.001342
O     0.244598    2.644464   -0.204665    0.451963   -0.058983   -0.007169
H     1.931646   -1.540867    0.066907    0.252804    0.701569   -0.056065
H    -0.299216   -2.347153    0.186398    0.977006   -0.256764    0.022238
H    -1.882973    1.378347   -0.056429   -0.075229   -0.589725    0.042718
H     2.328081    0.939334   -0.129643   -0.058072    0.701838   -0.048543
12
* Frequency(12)  566.2050
C     1.332508    0.566433   -0.076525    0.051054    0.445944   -0.034314
C     1.123053   -0.759852    0.028096    0.077170    0.499203   -0.039584
N    -0.134448   -1.362344    0.103735    0.146013   -0.133962    0.001804
C    -1.342365   -0.633172    0.081771   -0.235263   -0.488279    0.044168
N    -1.055578    0.731119   -0.028829    0.047148   -0.421891    0.030254
C     0.184524    1.432848   -0.112539   -0.028002   -0.025397    0.003433
O    -2.490138   -1.042082    0.142501   -0.588778    0.186620    0.001342
O     0.295961    2.637761   -0.205480    0.451963   -0.058983   -0.007169
H     1.960376   -1.461138    0.060536    0.252804    0.701569   -0.056065
H    -0.188185   -2.376333    0.188925    0.977006   -0.256764    0.022238
H    -1.891523    1.311328   -0.051574   -0.075229   -0.589725    0.042718
H     2.321481    1.019094   -0.135160   -0.058072    0.701838   -0.048543
12
* Frequency(12)  566.2050
C     1.337681    0.611620   -0.080003    0.051054    0.445944   -0.034314
C     1.130873   -0.709268    0.024085    0.077170    0.499203   -0.039584
N    -0.119652   -1.375918    0.103918    0.146013   -0.133962    0.001804
C    -1.366204   -0.682649    0.086247   -0.235263   -0.488279    0.044168
N    -1.050800    0.688369   -0.025763    0.047148   -0.421891    0.030254
C     0.181686    1.430274   -0.112191   -0.028002   -0.025397    0.003433
O    -2.549798   -1.023172    0.142637   -0.588778    0.186620    0.001342
O     0.341759    2.631784   -0.206206    0.451963   -0.058983   -0.007169
H     1.985993   -1.390048    0.054855    0.252804    0.701569   -0.056065
H    -0.089185   -2.402351    0.191178    0.977006   -0.256764    0.022238
H    -1.899145    1.251571   -0.047245   -0.075229   -0.589725    0.042718
H     2.315597    1.090211   -0.140079   -0.058072    0.701838   -0.048543
12
* Frequency(12)  566.2050
C     1.341665    0.646419   -0.082680    0.051054    0.445944   -0.034314
C     1.136895   -0.670313    0.020996    0.077170    0.499203   -0.039584
N    -0.108258   -1.386372    0.104058    0.146013   -0.133962    0.001804
C    -1.384562   -0.720752    0.089694   -0.235263   -0.488279    0.044168
N    -1.047121    0.655447   -0.023402    0.047148   -0.421891    0.030254
C     0.179501    1.428293   -0.111923   -0.028002   -0.025397    0.003433
O    -2.595743   -1.008610    0.142742   -0.588778    0.186620    0.001342
O     0.377027    2.627182   -0.206766    0.451963   -0.058983   -0.007169
H     2.005720   -1.335302    0.050480    0.252804    0.701569   -0.056065
H    -0.012945   -2.422387    0.192914    0.977006   -0.256764    0.022238
H    -1.905016    1.205553   -0.043912   -0.075229   -0.589725    0.042718
H     2.311065    1.144978   -0.143867   -0.058072    0.701838   -0.048543
12
* Frequency(12)  566.2050
C     1.344028    0.667058   -0.084268    0.051054    0.445944   -0.034314
C     1.140466   -0.647209    0.019164    0.077170    0.499203   -0.039584
N    -0.101500   -1.392572    0.104142    0.146013   -0.133962    0.001804
C    -1.395450   -0.743350    0.091738   -0.235263   -0.488279    0.044168
N    -1.044939    0.635921   -0.022002    0.047148   -0.421891    0.030254
C     0.178205    1.427117   -0.111764   -0.028002   -0.025397    0.003433
O    -2.622993   -0.999972    0.142804   -0.588778    0.186620    0.001342
O     0.397945    2.624452   -0.207097    0.451963   -0.058983   -0.007169
H     2.017420   -1.302832    0.047885    0.252804    0.701569   -0.056065
H     0.032272   -2.434271    0.193943    0.977006   -0.256764    0.022238
H    -1.908498    1.178259   -0.041935   -0.075229   -0.589725    0.042718
H     2.308378    1.177461   -0.146113   -0.058072    0.701838   -0.048543
12
* Frequency(12)  566.2050
C     1.344514    0.671301   -0.084595    0.051054    0.445944   -0.034314
C     1.141201   -0.642460    0.018787    0.077170    0.499203   -0.039584
N    -0.100111   -1.393847    0.104159    0.146013   -0.133962    0.001804
C    -1.397689   -0.747996    0.092158   -0.235263   -0.488279    0.044168
N    -1.044490    0.631907   -0.021714    0.047148   -0.421891    0.030254
C     0.177939    1.426876   -0.111732   -0.028002   -0.025397    0.003433
O    -2.628595   -0.998197    0.142817   -0.588778    0.186620    0.001342
O     0.402245    2.623891   -0.207166    0.451963   -0.058983   -0.007169
H     2.019825   -1.296157    0.047352    0.252804    0.701569   -0.056065
H     0.041568   -2.436714    0.194154    0.977006   -0.256764    0.022238
H    -1.909213    1.172648   -0.041529   -0.075229   -0.589725    0.042718
H     2.307825    1.184138   -0.146575   -0.058072    0.701838   -0.048543
12
* Frequency(12)  566.2050
C     1.343070    0.658688   -0.083624    0.051054    0.445944   -0.034314
C     1.139018   -0.656579    0.019907    0.077170    0.499203   -0.039584
N    -0.104241   -1.390058    0.104108    0.146013   -0.133962    0.001804
C    -1.391035   -0.734185    0.090909   -0.235263   -0.488279    0.044168
N    -1.045824    0.643840   -0.022570    0.047148   -0.421891    0.030254
C     0.178731    1.427594   -0.111829   -0.028002   -0.025397    0.003433
O    -2.611942   -1.003475    0.142779   -0.588778    0.186620    0.001342
O     0.389462    2.625559   -0.206963    0.451963   -0.058983   -0.007169
H     2.012675   -1.316000    0.048937    0.252804    0.701569   -0.056065
H     0.013934   -2.429452    0.193525    0.977006   -0.256764    0.022238
H    -1.907086    1.189328   -0.042737   -0.075229   -0.589725    0.042718
H     2.309468    1.164287   -0.145202   -0.058072    0.701838   -0.048543
12
* Frequency(12)  566.2050
C     1.339853    0.630586   -0.081462    0.051054    0.445944   -0.034314
C     1.134155   -0.688037    0.022401    0.077170    0.499203   -0.039584
N    -0.113442   -1.381616    0.103994    0.146013   -0.133962    0.001804
C    -1.376209   -0.703415    0.088125   -0.235263   -0.488279    0.044168
N    -1.048795    0.670426   -0.024477    0.047148   -0.421891    0.030254
C     0.180495    1.429194   -0.112045   -0.028002   -0.025397    0.003433
O    -2.574838   -1.015235    0.142694   -0.588778    0.186620    0.001342
O     0.360980    2.629276   -0.206511    0.451963   -0.058983   -0.007169
H     1.996744   -1.360211    0.052470    0.252804    0.701569   -0.056065
H    -0.047634   -2.413271    0.192124    0.977006   -0.256764    0.022238
H    -1.902345    1.226491   -0.045429   -0.075229   -0.589725    0.042718
H     2.313127    1.120060   -0.142143   -0.058072    0.701838   -0.048543
12
* Frequency(12)  566.2050
C     1.335211    0.590040   -0.078342    0.051054    0.445944   -0.034314
C     1.127139   -0.733426    0.026000    0.077170    0.499203   -0.039584
N    -0.126718   -1.369436    0.103830    0.146013   -0.133962    0.001804
C    -1.354819   -0.659020    0.084110   -0.235263   -0.488279    0.044168
N    -1.053082    0.708785   -0.027227    0.047148   -0.421891    0.030254
C     0.183041    1.431503   -0.112357   -0.028002   -0.025397    0.003433
O    -2.521306   -1.032203    0.142572   -0.588778    0.186620    0.001342
O     0.319887    2.634639   -0.205859    0.451963   -0.058983   -0.007169
H     1.973759   -1.423999    0.057568    0.252804    0.701569   -0.056065
H    -0.136465   -2.389926    0.190102    0.977006   -0.256764    0.022238
H    -1.895505    1.280109   -0.049313   -0.075229   -0.589725    0.042718
H     2.318407    1.056247   -0.137730   -0.058072    0.701838   -0.048543
12
* Frequency(12)  566.2050
C     1.329647    0.541444   -0.074603    0.051054    0.445944   -0.034314
C     1.118729   -0.787826    0.030314    0.077170    0.499203   -0.039584
N    -0.142630   -1.354837    0.103634    0.146013   -0.133962    0.001804
C    -1.329181   -0.605811    0.079296   -0.235263   -0.488279    0.044168
N    -1.058220    0.754760   -0.030524    0.047148   -0.421891    0.030254
C     0.186093    1.434271   -0.112731   -0.028002   -0.025397    0.003433
O    -2.457144   -1.052540    0.142426   -0.588778    0.186620    0.001342
O     0.270635    2.641066   -0.205078    0.451963   -0.058983   -0.007169
H     1.946210   -1.500451    0.063677    0.252804    0.701569   -0.056065
H    -0.242933   -2.361945    0.187679    0.977006   -0.256764    0.022238
H    -1.887307    1.344374   -0.053968   -0.075229   -0.589725    0.042718
H     2.324735    0.979765   -0.132440   -0.058072    0.701838   -0.048543
12
* Frequency(12)  566.2050
C     1.323765    0.490064   -0.070649    0.051054    0.445944   -0.034314
C     1.109838   -0.845342    0.034875    0.077170    0.499203   -0.039584
N    -0.159453   -1.339403    0.103426    0.146013   -0.133962    0.001804
C    -1.302075   -0.549553    0.074207   -0.235263   -0.488279    0.044168
N    -1.063652    0.803369   -0.034010    0.047148   -0.421891    0.030254
C     0.189319    1.437197   -0.113127   -0.028002   -0.025397    0.003433
O    -2.389308   -1.074042    0.142271   -0.588778    0.186620    0.001342
O     0.218561    2.647862   -0.204252    0.451963   -0.058983   -0.007169
H     1.917083   -1.581283    0.070137    0.252804    0.701569   -0.056065
H    -0.355500   -2.332362    0.185117    0.977006   -0.256764    0.022238
H    -1.878639    1.412320   -0.058890   -0.075229   -0.589725    0.042718
H     2.331426    0.898902   -0.126847   -0.058072    0.701838   -0.048543
12
* Frequency(12)  566.2050
C     1.318201    0.441468   -0.066910    0.051054    0.445944   -0.034314
C     1.101428   -0.899742    0.039188    0.077170    0.499203   -0.039584
N    -0.175364   -1.324804    0.103229    0.146013   -0.133962    0.001804
C    -1.276438   -0.496344    0.069394   -0.235263   -0.488279    0.044168
N    -1.068790    0.849344   -0.037307    0.047148   -0.421891    0.030254
C     0.192371    1.439965   -0.113501   -0.028002   -0.025397    0.003433
O    -2.325146   -1.094378    0.142125   -0.588778    0.186620    0.001342
O     0.169309    2.654290   -0.203471    0.451963   -0.058983   -0.007169
H     1.889534   -1.657736    0.076247    0.252804    0.701569   -0.056065
H    -0.461967   -2.304381    0.182693    0.977006   -0.256764    0.022238
H    -1.870441    1.476584   -0.063545   -0.075229   -0.589725    0.042718
H     2.337754    0.822421   -0.121557   -0.058072    0.701838   -0.048543
12
* Frequency(12)  566.2050
C     1.313559    0.400922   -0.063790    0.051054    0.445944   -0.034314
C     1.094412   -0.945130    0.042787    0.077170    0.499203   -0.039584
N    -0.188640   -1.312624    0.103065    0.146013   -0.133962    0.001804
C    -1.255047   -0.451948    0.065378   -0.235263   -0.488279    0.044168
N    -1.073076    0.887703   -0.040058    0.047148   -0.421891    0.030254
C     0.194917    1.442274   -0.113813   -0.028002   -0.025397    0.003433
O    -2.271614   -1.111346    0.142003   -0.588778    0.186620    0.001342
O     0.128216    2.659653   -0.202819    0.451963   -0.058983   -0.007169
H     1.866548   -1.721524    0.081344    0.252804    0.701569   -0.056065
H    -0.550799   -2.281036    0.180671    0.977006   -0.256764    0.022238
H    -1.863602    1.530203   -0.067429   -0.075229   -0.589725    0.042718
H     2.343034    0.758608   -0.117143   -0.058072    0.701838   -0.048543
12
* Frequency(12)  566.2050
C     1.310342    0.372819   -0.061628    0.051054    0.445944   -0.034314
C     1.089549   -0.976588    0.045282    0.077170    0.499203   -0.039584
N    -0.197842   -1.304182    0.102951    0.146013   -0.133962    0.001804
C    -1.240221   -0.421178    0.062595   -0.235263   -0.488279    0.044168
N    -1.076047    0.914289   -0.041964    0.047148   -0.421891    0.030254
C     0.196681    1.443874   -0.114030   -0.028002   -0.025397    0.003433
O    -2.234510   -1.123106    0.141918   -0.588778    0.186620    0.001342
O     0.099735    2.663370   -0.202367    0.451963   -0.058983   -0.007169
H     1.850617   -1.765735    0.084877    0.252804    0.701569   -0.056065
H    -0.612367   -2.264855    0.179270    0.977006   -0.256764    0.022238
H    -1.858861    1.567366   -0.070121   -0.075229   -0.589725    0.042718
H     2.346694    0.714380   -0.114084   -0.058072    0.701838   -0.048543
12
* Frequency(12)  566.2050
C     1.308898    0.360206   -0.060657    0.051054    0.445944   -0.034314
C     1.087366   -0.990708    0.046401    0.077170    0.499203   -0.039584
N    -0.201971   -1.300393    0.102900    0.146013   -0.133962    0.001804
C    -1.233567   -0.407368    0.061346   -0.235263   -0.488279    0.044168
N    -1.077381    0.926222   -0.042820    0.047148   -0.421891    0.030254
C     0.197473    1.444592   -0.114127   -0.028002   -0.025397    0.003433
O    -2.217858   -1.128385    0.141880   -0.588778    0.186620    0.001342
O     0.086951    2.665038   -0.202164    0.451963   -0.058983   -0.007169
H     1.843467   -1.785578    0.086463    0.252804    0.701569   -0.056065
H    -0.640000   -2.257593    0.178641    0.977006   -0.256764    0.022238
H    -1.856733    1.584045   -0.071329   -0.075229   -0.589725    0.042718
H     2.348336    0.694530   -0.112711   -0.058072    0.701838   -0.048543
12
* Frequency(12)  566.2050
C     1.309384    0.364449   -0.060983    0.051054    0.445944   -0.034314
C     1.088101   -0.985958    0.046025    0.077170    0.499203   -0.039584
N    -0.200582   -1.301668    0.102918    0.146013   -0.133962    0.001804
C    -1.235806   -0.412014    0.061766   -0.235263   -0.488279    0.044168
N    -1.076932    0.922208   -0.042532    0.047148   -0.421891    0.030254
C     0.197207    1.444351   -0.114094   -0.028002   -0.025397    0.003433
O    -2.223459   -1.126609    0.141893   -0.588778    0.186620    0.001342
O     0.091252    2.664477   -0.202233    0.451963   -0.058983   -0.007169
H     1.845872   -1.778903    0.085929    0.252804    0.701569   -0.056065
H    -0.630705   -2.260036    0.178853    0.977006   -0.256764    0.022238
H    -1.857449    1.578434   -0.070923   -0.075229   -0.589725    0.042718
H     2.347784    0.701207   -0.113173   -0.058072    0.701838   -0.048543
12
* Frequency(12)  566.2050
C     1.311747    0.385088   -0.062572    0.051054    0.445944   -0.034314
C     1.091672   -0.962854    0.044193    0.077170    0.499203   -0.039584
N    -0.193824   -1.307868    0.103001    0.146013   -0.133962    0.001804
C    -1.246694   -0.434612    0.063810   -0.235263   -0.488279    0.044168
N    -1.074750    0.902682   -0.041132    0.047148   -0.421891    0.030254
C     0.195911    1.443175   -0.113935   -0.028002   -0.025397    0.003433
O    -2.250709   -1.117972    0.141955   -0.588778    0.186620    0.001342
O     0.112169    2.661747   -0.202564    0.451963   -0.058983   -0.007169
H     1.857572   -1.746433    0.083335    0.252804    0.701569   -0.056065
H    -0.585487   -2.271919    0.179882    0.977006   -0.256764    0.022238
H    -1.860931    1.551141   -0.068945   -0.075229   -0.589725    0.042718
H     2.345096    0.733690   -0.115420   -0.058072    0.701838   -0.048543
12
* Frequency(12)  566.2050
C     1.315731    0.419887   -0.065249    0.051054    0.445944   -0.034314
C     1.097694   -0.923899    0.041104    0.077170    0.499203   -0.039584
N    -0.182430   -1.318322    0.103142    0.146013   -0.133962    0.001804
C    -1.265053   -0.472714    0.067257   -0.235263   -0.488279    0.044168
N    -1.071071    0.869760   -0.038771    0.047148   -0.421891    0.030254
C     0.193726    1.441194   -0.113667   -0.028002   -0.025397    0.003433
O    -2.296654   -1.103409    0.142060   -0.588778    0.186620    0.001342
O     0.147438    2.657144   -0.203124    0.451963   -0.058983   -0.007169
H     1.877300   -1.691687    0.078960    0.252804    0.701569   -0.056065
H    -0.509248   -2.291956    0.181617    0.977006   -0.256764    0.022238
H    -1.866801    1.505122   -0.065612   -0.075229   -0.589725    0.042718
H     2.340565    0.788457   -0.119208   -0.058072    0.701838   -0.048543
12
* Frequency(12)  566.2050
C     1.320904    0.465074   -0.068726    0.051054    0.445944   -0.034314
C     1.105514   -0.873315    0.037093    0.077170    0.499203   -0.039584
N    -0.167635   -1.331896    0.103325    0.146013   -0.133962    0.001804
C    -1.288892   -0.522191    0.071732   -0.235263   -0.488279    0.044168
N    -1.066294    0.827010   -0.035705    0.047148   -0.421891    0.030254
C     0.190888    1.438620   -0.113319   -0.028002   -0.025397    0.003433
O    -2.356314   -1.084499    0.142196   -0.588778    0.186620    0.001342
O     0.193235    2.651167   -0.203850    0.451963   -0.058983   -0.007169
H     1.902916   -1.620597    0.073279    0.252804    0.701569   -0.056065
H    -0.410248   -2.317973    0.183870    0.977006   -0.256764    0.022238
H    -1.874424    1.445366   -0.061283   -0.075229   -0.589725    0.042718
H     2.334680    0.859574   -0.124127   -0.058072    0.701838   -0.048543
12
* Frequency(12)  566.2050
C     1.326706    0.515754   -0.072626    0.051054    0.445944   -0.034314
C     1.114284   -0.816584    0.032594    0.077170    0.499203   -0.039584
N    -0.151041   -1.347120    0.103530    0.146013   -0.133962    0.001804
C    -1.315628   -0.577682    0.076752   -0.235263   -0.488279    0.044168
N    -1.060936    0.779065   -0.032267    0.047148   -0.421891    0.030254
C     0.187706    1.435734   -0.112929   -0.028002   -0.025397    0.003433
O    -2.423226   -1.063291    0.142349   -0.588778    0.186620    0.001342
O     0.244598    2.644464   -0.204665    0.451963   -0.058983   -0.007169
H     1.931646   -1.540867    0.066907    0.252804    0.701569   -0.056065
H    -0.299216   -2.347153    0.186398    0.977006   -0.256764    0.022238
H    -1.882973    1.378347   -0.056429   -0.075229   -0.589725    0.042718
H     2.328081    0.939334   -0.129643   -0.058072    0.701838   -0.048543
