12
* (null), Energy   -1000.0000000
C     1.629965    0.315610   -0.065301   -0.648001   -0.067004    0.021063
C     1.417359   -1.016714    0.040627   -0.319957   -0.185233    0.022766
N     0.152106   -1.547217    0.113051   -0.018715   -0.746534    0.056315
C    -1.012934   -0.778188    0.084369    0.383679   -0.282277    0.011544
N    -0.757957    0.578797   -0.024165    0.158057   -0.024922   -0.001669
C     0.490659    1.235340   -0.105671   -0.162265    0.562527   -0.038886
O    -2.120393   -1.263598    0.148925    0.227906    0.147673   -0.016899
O     0.547838    2.444022   -0.198224    0.261793    0.608862   -0.052499
H     2.234675   -1.741152    0.074482    0.099963    0.292770   -0.021441
H     0.004476   -2.547394    0.191756   -0.059406   -0.746370    0.056160
H    -1.579890    1.178069   -0.048486   -0.366132   -0.732392    0.065187
H     2.631499    0.738614   -0.122607   -0.487634   -0.435521    0.045762
12
* Frequency(10)  522.9227
C     1.556323    0.307995   -0.062907   -0.648001   -0.067004    0.021063
C     1.380998   -1.037765    0.043214   -0.319957   -0.185233    0.022766
N     0.149979   -1.632057    0.119451   -0.018715   -0.746534    0.056315
C    -0.969331   -0.810267    0.085681    0.383679   -0.282277    0.011544
N    -0.739994    0.575965   -0.024354    0.158057   -0.024922   -0.001669
C     0.472218    1.299268   -0.110090   -0.162265    0.562527   -0.038886
O    -2.094492   -1.246816    0.147004    0.227906    0.147673   -0.016899
O     0.577590    2.513216   -0.204190    0.261793    0.608862   -0.052499
H     2.246035   -1.707880    0.072045    0.099963    0.292770   -0.021441
H    -0.002275   -2.632215    0.198138   -0.059406   -0.746370    0.056160
H    -1.621499    1.094836   -0.041077   -0.366132   -0.732392    0.065187
H     2.576082    0.689119   -0.117407   -0.487634   -0.435521    0.045762
12
* Frequency(10)  522.9227
C     1.490661    0.301206   -0.060773   -0.648001   -0.067004    0.021063
C     1.348576   -1.056535    0.045521   -0.319957   -0.185233    0.022766
N     0.148083   -1.707703    0.125158   -0.018715   -0.746534    0.056315
C    -0.930453   -0.838870    0.086851    0.383679   -0.282277    0.011544
N    -0.723979    0.573439   -0.024524    0.158057   -0.024922   -0.001669
C     0.455776    1.356269   -0.114030   -0.162265    0.562527   -0.038886
O    -2.071399   -1.231852    0.145292    0.227906    0.147673   -0.016899
O     0.604117    2.574912   -0.209510    0.261793    0.608862   -0.052499
H     2.256164   -1.678214    0.069872    0.099963    0.292770   -0.021441
H    -0.008294   -2.707845    0.203829   -0.059406   -0.746370    0.056160
H    -1.658599    1.020623   -0.034472   -0.366132   -0.732392    0.065187
H     2.526670    0.644988   -0.112770   -0.487634   -0.435521    0.045762
12
* Frequency(10)  522.9227
C     1.440095    0.295977   -0.059129   -0.648001   -0.067004    0.021063
C     1.323609   -1.070989    0.047298   -0.319957   -0.185233    0.022766
N     0.146623   -1.765958    0.129552   -0.018715   -0.746534    0.056315
C    -0.900513   -0.860897    0.087752    0.383679   -0.282277    0.011544
N    -0.711645    0.571495   -0.024654    0.158057   -0.024922   -0.001669
C     0.443114    1.400165   -0.117065   -0.162265    0.562527   -0.038886
O    -2.053614   -1.220328    0.143973    0.227906    0.147673   -0.016899
O     0.624546    2.622424   -0.213606    0.261793    0.608862   -0.052499
H     2.263965   -1.655368    0.068199    0.099963    0.292770   -0.021441
H    -0.012930   -2.766087    0.208211   -0.059406   -0.746370    0.056160
H    -1.687170    0.963472   -0.029385   -0.366132   -0.732392    0.065187
H     2.488618    0.611003   -0.109199   -0.487634   -0.435521    0.045762
12
* Frequency(10)  522.9227
C     1.410105    0.292876   -0.058154   -0.648001   -0.067004    0.021063
C     1.308801   -1.079562    0.048351   -0.319957   -0.185233    0.022766
N     0.145756   -1.800509    0.132159   -0.018715   -0.746534    0.056315
C    -0.882756   -0.873962    0.088286    0.383679   -0.282277    0.011544
N    -0.704330    0.570341   -0.024731    0.158057   -0.024922   -0.001669
C     0.435604    1.426200   -0.118864   -0.162265    0.562527   -0.038886
O    -2.043066   -1.213494    0.143191    0.227906    0.147673   -0.016899
O     0.636662    2.650603   -0.216036    0.261793    0.608862   -0.052499
H     2.268591   -1.641818    0.067207    0.099963    0.292770   -0.021441
H    -0.015679   -2.800630    0.210810   -0.059406   -0.746370    0.056160
H    -1.704115    0.929575   -0.026368   -0.366132   -0.732392    0.065187
H     2.466050    0.590846   -0.107081   -0.487634   -0.435521    0.045762
12
* Frequency(10)  522.9227
C     1.403939    0.292239   -0.057954   -0.648001   -0.067004    0.021063
C     1.305757   -1.081325    0.048568   -0.319957   -0.185233    0.022766
N     0.145578   -1.807612    0.132694   -0.018715   -0.746534    0.056315
C    -0.879105   -0.876647    0.088396    0.383679   -0.282277    0.011544
N    -0.702826    0.570104   -0.024747    0.158057   -0.024922   -0.001669
C     0.434060    1.431552   -0.119234   -0.162265    0.562527   -0.038886
O    -2.040898   -1.212089    0.143030    0.227906    0.147673   -0.016899
O     0.639153    2.656396   -0.216535    0.261793    0.608862   -0.052499
H     2.269543   -1.639032    0.067003    0.099963    0.292770   -0.021441
H    -0.016245   -2.807731    0.211345   -0.059406   -0.746370    0.056160
H    -1.707598    0.922607   -0.025748   -0.366132   -0.732392    0.065187
H     2.461410    0.586702   -0.106645   -0.487634   -0.435521    0.045762
12
* Frequency(10)  522.9227
C     1.422267    0.294134   -0.058550   -0.648001   -0.067004    0.021063
C     1.314806   -1.076085    0.047924   -0.319957   -0.185233    0.022766
N     0.146108   -1.786497    0.131102   -0.018715   -0.746534    0.056315
C    -0.889957   -0.868663    0.088070    0.383679   -0.282277    0.011544
N    -0.707296    0.570809   -0.024700    0.158057   -0.024922   -0.001669
C     0.438649    1.415641   -0.118135   -0.162265    0.562527   -0.038886
O    -2.047344   -1.216266    0.143508    0.227906    0.147673   -0.016899
O     0.631749    2.639175   -0.215051    0.261793    0.608862   -0.052499
H     2.266715   -1.647313    0.067609    0.099963    0.292770   -0.021441
H    -0.014564   -2.786621    0.209756   -0.059406   -0.746370    0.056160
H    -1.697243    0.943322   -0.027592   -0.366132   -0.732392    0.065187
H     2.475202    0.599021   -0.107940   -0.487634   -0.435521    0.045762
12
* Frequency(10)  522.9227
C     1.463102    0.298356   -0.059877   -0.648001   -0.067004    0.021063
C     1.334969   -1.064412    0.046489   -0.319957   -0.185233    0.022766
N     0.147287   -1.739452    0.127553   -0.018715   -0.746534    0.056315
C    -0.914136   -0.850875    0.087342    0.383679   -0.282277    0.011544
N    -0.717257    0.572380   -0.024595    0.158057   -0.024922   -0.001669
C     0.448875    1.380192   -0.115684   -0.162265    0.562527   -0.038886
O    -2.061706   -1.225572    0.144573    0.227906    0.147673   -0.016899
O     0.615251    2.600806   -0.211742    0.261793    0.608862   -0.052499
H     2.260416   -1.665762    0.068960    0.099963    0.292770   -0.021441
H    -0.010821   -2.739587    0.206217   -0.059406   -0.746370    0.056160
H    -1.674170    0.989475   -0.031700   -0.366132   -0.732392    0.065187
H     2.505932    0.626466   -0.110823   -0.487634   -0.435521    0.045762
12
* Frequency(10)  522.9227
C     1.522020    0.304448   -0.061792   -0.648001   -0.067004    0.021063
C     1.364060   -1.047571    0.044420   -0.319957   -0.185233    0.022766
N     0.148989   -1.671576    0.122433   -0.018715   -0.746534    0.056315
C    -0.949020   -0.825210    0.086292    0.383679   -0.282277    0.011544
N    -0.731627    0.574645   -0.024443    0.158057   -0.024922   -0.001669
C     0.463628    1.329047   -0.112148   -0.162265    0.562527   -0.038886
O    -2.082428   -1.238998    0.146110    0.227906    0.147673   -0.016899
O     0.591448    2.545447   -0.206969    0.261793    0.608862   -0.052499
H     2.251327   -1.692382    0.070910    0.099963    0.292770   -0.021441
H    -0.005419   -2.671726    0.201111   -0.059406   -0.746370    0.056160
H    -1.640881    1.056066   -0.037627   -0.366132   -0.732392    0.065187
H     2.550268    0.666064   -0.114984   -0.487634   -0.435521    0.045762
12
* Frequency(10)  522.9227
C     1.592635    0.311750   -0.064087   -0.648001   -0.067004    0.021063
C     1.398927   -1.027385    0.041939   -0.319957   -0.185233    0.022766
N     0.151028   -1.590223    0.116296   -0.018715   -0.746534    0.056315
C    -0.990831   -0.794449    0.085034    0.383679   -0.282277    0.011544
N    -0.748851    0.577361   -0.024261    0.158057   -0.024922   -0.001669
C     0.481311    1.267746   -0.107911   -0.162265    0.562527   -0.038886
O    -2.107263   -1.255091    0.147951    0.227906    0.147673   -0.016899
O     0.562920    2.479097   -0.201248    0.261793    0.608862   -0.052499
H     2.240434   -1.724286    0.073246    0.099963    0.292770   -0.021441
H     0.001054   -2.590391    0.194991   -0.059406   -0.746370    0.056160
H    -1.600982    1.135877   -0.044730   -0.366132   -0.732392    0.065187
H     2.603407    0.713525   -0.119971   -0.487634   -0.435521    0.045762
12
* Frequency(10)  522.9227
C     1.667295    0.319470   -0.066514   -0.648001   -0.067004    0.021063
C     1.435791   -1.006043    0.039316   -0.319957   -0.185233    0.022766
N     0.153184   -1.504211    0.109807   -0.018715   -0.746534    0.056315
C    -1.035037   -0.761926    0.083704    0.383679   -0.282277    0.011544
N    -0.767062    0.580233   -0.024069    0.158057   -0.024922   -0.001669
C     0.500006    1.202934   -0.103431   -0.162265    0.562527   -0.038886
O    -2.133522   -1.272105    0.149898    0.227906    0.147673   -0.016899
O     0.532757    2.408947   -0.195199    0.261793    0.608862   -0.052499
H     2.228916   -1.758018    0.075717    0.099963    0.292770   -0.021441
H     0.007899   -2.504397    0.188520   -0.059406   -0.746370    0.056160
H    -1.558798    1.220260   -0.052241   -0.366132   -0.732392    0.065187
H     2.659591    0.763704   -0.125243   -0.487634   -0.435521    0.045762
12
* Frequency(10)  522.9227
C     1.737910    0.326772   -0.068810   -0.648001   -0.067004    0.021063
C     1.470658   -0.985858    0.036835   -0.319957   -0.185233    0.022766
N     0.155224   -1.422858    0.103670   -0.018715   -0.746534    0.056315
C    -1.076848   -0.731166    0.082446    0.383679   -0.282277    0.011544
N    -0.784286    0.582948   -0.023887    0.158057   -0.024922   -0.001669
C     0.517689    1.141633   -0.099193   -0.162265    0.562527   -0.038886
O    -2.158358   -1.288197    0.151740    0.227906    0.147673   -0.016899
O     0.504229    2.342597   -0.189478    0.261793    0.608862   -0.052499
H     2.218023   -1.789922    0.078053    0.099963    0.292770   -0.021441
H     0.014372   -2.423063    0.182401   -0.059406   -0.746370    0.056160
H    -1.518899    1.300072   -0.059345   -0.366132   -0.732392    0.065187
H     2.712730    0.811164   -0.130230   -0.487634   -0.435521    0.045762
12
* Frequency(10)  522.9227
C     1.796827    0.332864   -0.070725   -0.648001   -0.067004    0.021063
C     1.499749   -0.969016    0.034765   -0.319957   -0.185233    0.022766
N     0.156925   -1.354982    0.098550   -0.018715   -0.746534    0.056315
C    -1.111733   -0.705501    0.081397    0.383679   -0.282277    0.011544
N    -0.798657    0.585214   -0.023735    0.158057   -0.024922   -0.001669
C     0.532442    1.090487   -0.095658   -0.162265    0.562527   -0.038886
O    -2.179079   -1.301624    0.153276    0.227906    0.147673   -0.016899
O     0.480426    2.287238   -0.184705    0.261793    0.608862   -0.052499
H     2.208934   -1.816541    0.080003    0.099963    0.292770   -0.021441
H     0.019774   -2.355202    0.177294   -0.059406   -0.746370    0.056160
H    -1.485609    1.366662   -0.065271   -0.366132   -0.732392    0.065187
H     2.757066    0.850762   -0.134391   -0.487634   -0.435521    0.045762
12
* Frequency(10)  522.9227
C     1.837663    0.337086   -0.072052   -0.648001   -0.067004    0.021063
C     1.519912   -0.957343    0.033330   -0.319957   -0.185233    0.022766
N     0.158105   -1.307937    0.095001   -0.018715   -0.746534    0.056315
C    -1.135911   -0.687712    0.080669    0.383679   -0.282277    0.011544
N    -0.808617    0.586785   -0.023630    0.158057   -0.024922   -0.001669
C     0.542668    1.055038   -0.093207   -0.162265    0.562527   -0.038886
O    -2.193441   -1.310930    0.154341    0.227906    0.147673   -0.016899
O     0.463928    2.248869   -0.181397    0.261793    0.608862   -0.052499
H     2.202635   -1.834990    0.081354    0.099963    0.292770   -0.021441
H     0.023517   -2.308167    0.173755   -0.059406   -0.746370    0.056160
H    -1.462537    1.412815   -0.069379   -0.366132   -0.732392    0.065187
H     2.787796    0.878208   -0.137275   -0.487634   -0.435521    0.045762
12
* Frequency(10)  522.9227
C     1.855991    0.338981   -0.072648   -0.648001   -0.067004    0.021063
C     1.528961   -0.952104    0.032686   -0.319957   -0.185233    0.022766
N     0.158634   -1.286822    0.093408   -0.018715   -0.746534    0.056315
C    -1.146763   -0.679728    0.080343    0.383679   -0.282277    0.011544
N    -0.813088    0.587490   -0.023583    0.158057   -0.024922   -0.001669
C     0.547257    1.039128   -0.092107   -0.162265    0.562527   -0.038886
O    -2.199887   -1.315107    0.154819    0.227906    0.147673   -0.016899
O     0.456524    2.231648   -0.179912    0.261793    0.608862   -0.052499
H     2.199807   -1.843271    0.081960    0.099963    0.292770   -0.021441
H     0.025197   -2.287057    0.172167   -0.059406   -0.746370    0.056160
H    -1.452181    1.433530   -0.071223   -0.366132   -0.732392    0.065187
H     2.801588    0.890526   -0.138569   -0.487634   -0.435521    0.045762
12
* Frequency(10)  522.9227
C     1.849825    0.338344   -0.072447   -0.648001   -0.067004    0.021063
C     1.525917   -0.953866    0.032903   -0.319957   -0.185233    0.022766
N     0.158456   -1.293925    0.093944   -0.018715   -0.746534    0.056315
C    -1.143113   -0.682414    0.080452    0.383679   -0.282277    0.011544
N    -0.811584    0.587253   -0.023598    0.158057   -0.024922   -0.001669
C     0.545713    1.044480   -0.092477   -0.162265    0.562527   -0.038886
O    -2.197719   -1.313702    0.154659    0.227906    0.147673   -0.016899
O     0.459015    2.237441   -0.180411    0.261793    0.608862   -0.052499
H     2.200758   -1.840486    0.081756    0.099963    0.292770   -0.021441
H     0.024632   -2.294158    0.172701   -0.059406   -0.746370    0.056160
H    -1.455665    1.426562   -0.070603   -0.366132   -0.732392    0.065187
H     2.796948    0.886382   -0.138134   -0.487634   -0.435521    0.045762
12
* Frequency(10)  522.9227
C     1.819835    0.335243   -0.071473   -0.648001   -0.067004    0.021063
C     1.511109   -0.962439    0.033956   -0.319957   -0.185233    0.022766
N     0.157590   -1.328476    0.096550   -0.018715   -0.746534    0.056315
C    -1.125355   -0.695478    0.080987    0.383679   -0.282277    0.011544
N    -0.804269    0.586099   -0.023676    0.158057   -0.024922   -0.001669
C     0.538204    1.070515   -0.094277   -0.162265    0.562527   -0.038886
O    -2.187171   -1.306867    0.153876    0.227906    0.147673   -0.016899
O     0.471131    2.265620   -0.182841    0.261793    0.608862   -0.052499
H     2.205385   -1.826936    0.080764    0.099963    0.292770   -0.021441
H     0.021883   -2.328702    0.175300   -0.059406   -0.746370    0.056160
H    -1.472610    1.392665   -0.067586   -0.366132   -0.732392    0.065187
H     2.774380    0.866226   -0.136016   -0.487634   -0.435521    0.045762
12
* Frequency(10)  522.9227
C     1.769269    0.330014   -0.069829   -0.648001   -0.067004    0.021063
C     1.486142   -0.976894    0.035733   -0.319957   -0.185233    0.022766
N     0.156129   -1.386731    0.100945   -0.018715   -0.746534    0.056315
C    -1.095415   -0.717505    0.081888    0.383679   -0.282277    0.011544
N    -0.791935    0.584154   -0.023806    0.158057   -0.024922   -0.001669
C     0.525541    1.114411   -0.097311   -0.162265    0.562527   -0.038886
O    -2.169387   -1.295344    0.152558    0.227906    0.147673   -0.016899
O     0.491560    2.313132   -0.186938    0.261793    0.608862   -0.052499
H     2.213185   -1.804090    0.079091    0.099963    0.292770   -0.021441
H     0.017247   -2.386944    0.179683   -0.059406   -0.746370    0.056160
H    -1.501181    1.335514   -0.062499   -0.366132   -0.732392    0.065187
H     2.736328    0.832240   -0.132445   -0.487634   -0.435521    0.045762
12
* Frequency(10)  522.9227
C     1.703607    0.323225   -0.067695   -0.648001   -0.067004    0.021063
C     1.453720   -0.995663    0.038040   -0.319957   -0.185233    0.022766
N     0.154233   -1.462377    0.106651   -0.018715   -0.746534    0.056315
C    -1.056537   -0.746108    0.083057    0.383679   -0.282277    0.011544
N    -0.775919    0.581629   -0.023975    0.158057   -0.024922   -0.001669
C     0.509099    1.171412   -0.101252   -0.162265    0.562527   -0.038886
O    -2.146293   -1.280380    0.150845    0.227906    0.147673   -0.016899
O     0.518087    2.374828   -0.192257    0.261793    0.608862   -0.052499
H     2.223315   -1.774423    0.076918    0.099963    0.292770   -0.021441
H     0.011228   -2.462573    0.185373   -0.059406   -0.746370    0.056160
H    -1.538281    1.261301   -0.055894   -0.366132   -0.732392    0.065187
H     2.686916    0.788109   -0.127808   -0.487634   -0.435521    0.045762
12
* Frequency(10)  522.9227
C     1.629965    0.315610   -0.065301   -0.648001   -0.067004    0.021063
C     1.417359   -1.016714    0.040627   -0.319957   -0.185233    0.022766
N     0.152106   -1.547217    0.113051   -0.018715   -0.746534    0.056315
C    -1.012934   -0.778188    0.084369    0.383679   -0.282277    0.011544
N    -0.757957    0.578797   -0.024165    0.158057   -0.024922   -0.001669
C     0.490659    1.235340   -0.105671   -0.162265    0.562527   -0.038886
O    -2.120393   -1.263598    0.148925    0.227906    0.147673   -0.016899
O     0.547838    2.444022   -0.198224    0.261793    0.608862   -0.052499
H     2.234675   -1.741152    0.074482    0.099963    0.292770   -0.021441
H     0.004476   -2.547394    0.191756   -0.059406   -0.746370    0.056160
H    -1.579890    1.178069   -0.048486   -0.366132   -0.732392    0.065187
H     2.631499    0.738614   -0.122607   -0.487634   -0.435521    0.045762
