3
Coordinates from ORCA-job .\H2O_opt_MP2 E -76.302826485299
  O      -4.000000      0.000000      0.000000
  H      -2.973650      0.000000      0.000000
  H      -3.996500     -0.978550      0.311650
3
Coordinates from ORCA-job .\H2O_opt_MP2 E -76.311320429515
  O      -3.963158     -0.035294      0.011240
  H      -2.993341      0.016287     -0.005187
  H      -4.013650     -0.959543      0.305597
3
Coordinates from ORCA-job .\H2O_opt_MP2 E -76.312931110071
  O      -3.939021     -0.058231      0.018546
  H      -2.987046      0.045308     -0.014430
  H      -4.044084     -0.965627      0.307534
3
Coordinates from ORCA-job .\H2O_opt_MP2 E -76.313055756954
  O      -3.935004     -0.061996      0.019745
  H      -2.980345      0.055539     -0.017688
  H      -4.054801     -0.972093      0.309594
3
Coordinates from ORCA-job .\H2O_opt_MP2 E -76.313056063238
  O      -3.934636     -0.062361      0.019861
  H      -2.980420      0.055819     -0.017777
  H      -4.055093     -0.972008      0.309566
3
Coordinates from ORCA-job .\H2O_opt_MP2 E -76.313056120060
  O      -3.934634     -0.062359      0.019860
  H      -2.980422      0.055819     -0.017777
  H      -4.055094     -0.972011      0.309567
