3
* (null), Energy   -1000.0000000
O    -3.934634   -0.062359    0.019860    0.070312   -0.066692    0.021240
H    -2.980422    0.055819   -0.017777   -1.385828   -0.262147    0.083489
H    -4.055094   -0.972011    0.309567    0.269840    1.320688   -0.420615
3
* Frequency(7) 3819.1603
O    -3.926643   -0.069938    0.022274    0.070312   -0.066692    0.021240
H    -3.137914    0.026028   -0.008289   -1.385828   -0.262147    0.083489
H    -4.024428   -0.821921    0.261767    0.269840    1.320688   -0.420615
3
* Frequency(7) 3819.1603
O    -3.919518   -0.076696    0.024426    0.070312   -0.066692    0.021240
H    -3.278340   -0.000536    0.000171   -1.385828   -0.262147    0.083489
H    -3.997085   -0.688096    0.219146    0.269840    1.320688   -0.420615
3
* Frequency(7) 3819.1603
O    -3.914032   -0.081900    0.026084    0.070312   -0.066692    0.021240
H    -3.386481   -0.020992    0.006686   -1.385828   -0.262147    0.083489
H    -3.976029   -0.585038    0.186324    0.269840    1.320688   -0.420615
3
* Frequency(7) 3819.1603
O    -3.910778   -0.084987    0.027067    0.070312   -0.066692    0.021240
H    -3.450620   -0.033125    0.010550   -1.385828   -0.262147    0.083489
H    -3.963540   -0.523914    0.166857    0.269840    1.320688   -0.420615
3
* Frequency(7) 3819.1603
O    -3.910109   -0.085621    0.027269    0.070312   -0.066692    0.021240
H    -3.463805   -0.035619    0.011344   -1.385828   -0.262147    0.083489
H    -3.960973   -0.511349    0.162855    0.269840    1.320688   -0.420615
3
* Frequency(7) 3819.1603
O    -3.912097   -0.083735    0.026668    0.070312   -0.066692    0.021240
H    -3.424609   -0.028204    0.008983   -1.385828   -0.262147    0.083489
H    -3.968605   -0.548703    0.174752    0.269840    1.320688   -0.420615
3
* Frequency(7) 3819.1603
O    -3.916528   -0.079532    0.025329    0.070312   -0.066692    0.021240
H    -3.337277   -0.011685    0.003721   -1.385828   -0.262147    0.083489
H    -3.985609   -0.631929    0.201258    0.269840    1.320688   -0.420615
3
* Frequency(7) 3819.1603
O    -3.922921   -0.073468    0.023398    0.070312   -0.066692    0.021240
H    -3.211276    0.012150   -0.003870   -1.385828   -0.262147    0.083489
H    -4.010144   -0.752008    0.239501    0.269840    1.320688   -0.420615
3
* Frequency(7) 3819.1603
O    -3.930583   -0.066201    0.021084    0.070312   -0.066692    0.021240
H    -3.060257    0.040717   -0.012968   -1.385828   -0.262147    0.083489
H    -4.039549   -0.895928    0.285337    0.269840    1.320688   -0.420615
3
* Frequency(7) 3819.1603
O    -3.938684   -0.058517    0.018636    0.070312   -0.066692    0.021240
H    -2.900587    0.070921   -0.022587   -1.385828   -0.262147    0.083489
H    -4.070639   -1.048093    0.333798    0.269840    1.320688   -0.420615
3
* Frequency(7) 3819.1603
O    -3.946346   -0.051249    0.016322    0.070312   -0.066692    0.021240
H    -2.749569    0.099488   -0.031685   -1.385828   -0.262147    0.083489
H    -4.100045   -1.192013    0.379634    0.269840    1.320688   -0.420615
3
* Frequency(7) 3819.1603
O    -3.952739   -0.045185    0.014391    0.070312   -0.066692    0.021240
H    -2.623567    0.123323   -0.039276   -1.385828   -0.262147    0.083489
H    -4.124579   -1.312092    0.417877    0.269840    1.320688   -0.420615
3
* Frequency(7) 3819.1603
O    -3.957170   -0.040982    0.013052    0.070312   -0.066692    0.021240
H    -2.536236    0.139843   -0.044537   -1.385828   -0.262147    0.083489
H    -4.141584   -1.395318    0.444383    0.269840    1.320688   -0.420615
3
* Frequency(7) 3819.1603
O    -3.959159   -0.039096    0.012451    0.070312   -0.066692    0.021240
H    -2.497039    0.147257   -0.046899   -1.385828   -0.262147    0.083489
H    -4.149216   -1.432673    0.456280    0.269840    1.320688   -0.420615
3
* Frequency(7) 3819.1603
O    -3.958490   -0.039731    0.012653    0.070312   -0.066692    0.021240
H    -2.510225    0.144763   -0.046104   -1.385828   -0.262147    0.083489
H    -4.146648   -1.420107    0.452278    0.269840    1.320688   -0.420615
3
* Frequency(7) 3819.1603
O    -3.955236   -0.042817    0.013636    0.070312   -0.066692    0.021240
H    -2.574363    0.132631   -0.042240   -1.385828   -0.262147    0.083489
H    -4.134160   -1.358983    0.432811    0.269840    1.320688   -0.420615
3
* Frequency(7) 3819.1603
O    -3.949749   -0.048021    0.015294    0.070312   -0.066692    0.021240
H    -2.682505    0.112174   -0.035725   -1.385828   -0.262147    0.083489
H    -4.113103   -1.255925    0.399989    0.269840    1.320688   -0.420615
3
* Frequency(7) 3819.1603
O    -3.942624   -0.054779    0.017446    0.070312   -0.066692    0.021240
H    -2.822930    0.085611   -0.027265   -1.385828   -0.262147    0.083489
H    -4.085760   -1.122100    0.357368    0.269840    1.320688   -0.420615
3
* Frequency(7) 3819.1603
O    -3.934634   -0.062359    0.019860    0.070312   -0.066692    0.021240
H    -2.980422    0.055819   -0.017777   -1.385828   -0.262147    0.083489
H    -4.055094   -0.972011    0.309567    0.269840    1.320688   -0.420615
