3
* (null), Energy   -1000.0000000
O    -3.934634   -0.062359    0.019860    0.100447   -0.095360    0.030370
H    -2.980422    0.055819   -0.017777   -0.196708    1.331002   -0.423900
H    -4.055094   -0.972011    0.309567   -1.397582    0.182555   -0.058140
3
* Frequency(6) 1613.1525
O    -3.923218   -0.073196    0.023311    0.100447   -0.095360    0.030370
H    -3.002777    0.207081   -0.065951   -0.196708    1.331002   -0.423900
H    -4.213922   -0.951264    0.302960   -1.397582    0.182555   -0.058140
3
* Frequency(6) 1613.1525
O    -3.913040   -0.082859    0.026389    0.100447   -0.095360    0.030370
H    -3.022709    0.341951   -0.108905   -0.196708    1.331002   -0.423900
H    -4.355539   -0.932766    0.297069   -1.397582    0.182555   -0.058140
3
* Frequency(6) 1613.1525
O    -3.905202   -0.090300    0.028759    0.100447   -0.095360    0.030370
H    -3.038059    0.445814   -0.141983   -0.196708    1.331002   -0.423900
H    -4.464597   -0.918521    0.292532   -1.397582    0.182555   -0.058140
3
* Frequency(6) 1613.1525
O    -3.900553   -0.094713    0.030164    0.100447   -0.095360    0.030370
H    -3.047163    0.507415   -0.161602   -0.196708    1.331002   -0.423900
H    -4.529280   -0.910072    0.289841   -1.397582    0.182555   -0.058140
3
* Frequency(6) 1613.1525
O    -3.899597   -0.095621    0.030453    0.100447   -0.095360    0.030370
H    -3.049035    0.520079   -0.165635   -0.196708    1.331002   -0.423900
H    -4.542577   -0.908335    0.289288   -1.397582    0.182555   -0.058140
3
* Frequency(6) 1613.1525
O    -3.902439   -0.092923    0.029594    0.100447   -0.095360    0.030370
H    -3.043471    0.482433   -0.153646   -0.196708    1.331002   -0.423900
H    -4.503048   -0.913498    0.290932   -1.397582    0.182555   -0.058140
3
* Frequency(6) 1613.1525
O    -3.908768   -0.086914    0.027681    0.100447   -0.095360    0.030370
H    -3.031075    0.398557   -0.126933   -0.196708    1.331002   -0.423900
H    -4.414976   -0.925002    0.294596   -1.397582    0.182555   -0.058140
3
* Frequency(6) 1613.1525
O    -3.917901   -0.078244    0.024919    0.100447   -0.095360    0.030370
H    -3.013190    0.277540   -0.088391   -0.196708    1.331002   -0.423900
H    -4.287906   -0.941600    0.299882   -1.397582    0.182555   -0.058140
3
* Frequency(6) 1613.1525
O    -3.928847   -0.067852    0.021610    0.100447   -0.095360    0.030370
H    -2.991754    0.132496   -0.042197   -0.196708    1.331002   -0.423900
H    -4.135606   -0.961494    0.306218   -1.397582    0.182555   -0.058140
3
* Frequency(6) 1613.1525
O    -3.940420   -0.056865    0.018110    0.100447   -0.095360    0.030370
H    -2.969090   -0.020857    0.006643   -0.196708    1.331002   -0.423900
H    -3.974582   -0.982527    0.312917   -1.397582    0.182555   -0.058140
3
* Frequency(6) 1613.1525
O    -3.951366   -0.046473    0.014801    0.100447   -0.095360    0.030370
H    -2.947654   -0.165901    0.052836   -0.196708    1.331002   -0.423900
H    -3.822283   -1.002421    0.319252   -1.397582    0.182555   -0.058140
3
* Frequency(6) 1613.1525
O    -3.960499   -0.037803    0.012040    0.100447   -0.095360    0.030370
H    -2.929769   -0.286918    0.091378   -0.196708    1.331002   -0.423900
H    -3.695212   -1.019019    0.324539   -1.397582    0.182555   -0.058140
3
* Frequency(6) 1613.1525
O    -3.966829   -0.031794    0.010126    0.100447   -0.095360    0.030370
H    -2.917373   -0.370795    0.118091   -0.196708    1.331002   -0.423900
H    -3.607140   -1.030523    0.328203   -1.397582    0.182555   -0.058140
3
* Frequency(6) 1613.1525
O    -3.969670   -0.029097    0.009267    0.100447   -0.095360    0.030370
H    -2.911810   -0.408440    0.130081   -0.196708    1.331002   -0.423900
H    -3.567611   -1.035687    0.329847   -1.397582    0.182555   -0.058140
3
* Frequency(6) 1613.1525
O    -3.968714   -0.030004    0.009556    0.100447   -0.095360    0.030370
H    -2.913681   -0.395777    0.126048   -0.196708    1.331002   -0.423900
H    -3.580908   -1.033950    0.329294   -1.397582    0.182555   -0.058140
3
* Frequency(6) 1613.1525
O    -3.964065   -0.034417    0.010961    0.100447   -0.095360    0.030370
H    -2.922785   -0.334175    0.106429   -0.196708    1.331002   -0.423900
H    -3.645591   -1.025501    0.326603   -1.397582    0.182555   -0.058140
3
* Frequency(6) 1613.1525
O    -3.956227   -0.041859    0.013331    0.100447   -0.095360    0.030370
H    -2.938135   -0.230312    0.073350   -0.196708    1.331002   -0.423900
H    -3.754650   -1.011255    0.322066   -1.397582    0.182555   -0.058140
3
* Frequency(6) 1613.1525
O    -3.946049   -0.051521    0.016409    0.100447   -0.095360    0.030370
H    -2.958067   -0.095442    0.030397   -0.196708    1.331002   -0.423900
H    -3.896266   -0.992757    0.316175   -1.397582    0.182555   -0.058140
3
* Frequency(6) 1613.1525
O    -3.934634   -0.062359    0.019860    0.100447   -0.095360    0.030370
H    -2.980422    0.055819   -0.017777   -0.196708    1.331002   -0.423900
H    -4.055094   -0.972011    0.309567   -1.397582    0.182555   -0.058140
