10
Coordinates from ORCA-job .\Acetona E -192.786421230435
  C          -2.08922553257083     -1.62919856906261     -0.03533339613277
  C          -0.80117451239130     -0.84123242218385     -0.09292698410517
  H          -2.94439227647617     -0.94840279223973     -0.12903955480527
  H          -2.15982560092544     -2.19081486979979      0.90982007297093
  H          -2.11780850959422     -2.37161452674732     -0.84920829415331
  C           0.47710527696712     -1.62841139790227      0.07925495551761
  H           0.50073122993564     -2.10176049257953      1.07423310107380
  H           1.34071099055536     -0.96057616439566     -0.02941050444260
  H           0.53744111666962     -2.44188998076301     -0.66114502413505
  O          -0.79369218216978      0.35319121567379     -0.26624437178817
