10
* (null), Energy   -1000.0000000
C    -1.287465   -0.687675    0.042671   -0.049230    0.031181    0.063431
C     0.000586    0.100291   -0.014923   -0.001127   -0.013724    0.001760
H    -2.142632   -0.006880   -0.051035    0.255544    0.277632   -0.819802
H    -1.358065   -1.249292    0.987824    0.654949   -0.660696   -0.301167
H    -1.316048   -1.430091   -0.771204   -0.304001   -0.224785    0.276649
C     1.278866   -0.686888    0.157259    0.051006    0.010337   -0.069667
H     1.302492   -1.160237    1.152237    0.295833   -0.298982   -0.198510
H     2.142472   -0.019053    0.048594   -0.249665    0.509895    0.702350
H     1.339202   -1.500367   -0.583141   -0.666015   -0.535961    0.480081
O     0.008068    1.294714   -0.188240    0.000355    0.037910   -0.005435
10
* Frequency(21) 1436.5936
C    -1.293060   -0.684132    0.049879   -0.049230    0.031181    0.063431
C     0.000458    0.098731   -0.014723   -0.001127   -0.013724    0.001760
H    -2.113591    0.024672   -0.144202    0.255544    0.277632   -0.819802
H    -1.283634   -1.324376    0.953598    0.654949   -0.660696   -0.301167
H    -1.350596   -1.455637   -0.739764   -0.304001   -0.224785    0.276649
C     1.284662   -0.685713    0.149342    0.051006    0.010337   -0.069667
H     1.336112   -1.194215    1.129677    0.295833   -0.298982   -0.198510
H     2.114098    0.038894    0.128412   -0.249665    0.509895    0.702350
H     1.263513   -1.561276   -0.528582   -0.666015   -0.535961    0.480081
O     0.008109    1.299023   -0.188858    0.000355    0.037910   -0.005435
10
* Frequency(21) 1436.5936
C    -1.298048   -0.680972    0.056307   -0.049230    0.031181    0.063431
C     0.000344    0.097341   -0.014544   -0.001127   -0.013724    0.001760
H    -2.087696    0.052804   -0.227272    0.255544    0.277632   -0.819802
H    -1.217268   -1.391325    0.923081    0.654949   -0.660696   -0.301167
H    -1.381400   -1.478414   -0.711732   -0.304001   -0.224785    0.276649
C     1.289831   -0.684666    0.142282    0.051006    0.010337   -0.069667
H     1.366088   -1.224511    1.109562    0.295833   -0.298982   -0.198510
H     2.088800    0.090561    0.199581   -0.249665    0.509895    0.702350
H     1.196025   -1.615585   -0.479936   -0.666015   -0.535961    0.480081
O     0.008145    1.302864   -0.189409    0.000355    0.037910   -0.005435
10
* Frequency(21) 1436.5936
C    -1.301890   -0.678539    0.061256   -0.049230    0.031181    0.063431
C     0.000256    0.096270   -0.014407   -0.001127   -0.013724    0.001760
H    -2.067755    0.074469   -0.291244    0.255544    0.277632   -0.819802
H    -1.166160   -1.442881    0.899580    0.654949   -0.660696   -0.301167
H    -1.405123   -1.495955   -0.690144   -0.304001   -0.224785    0.276649
C     1.293811   -0.683859    0.136846    0.051006    0.010337   -0.069667
H     1.389173   -1.247841    1.094072    0.295833   -0.298982   -0.198510
H     2.069318    0.130351    0.254388   -0.249665    0.509895    0.702350
H     1.144054   -1.657408   -0.442473   -0.666015   -0.535961    0.480081
O     0.008172    1.305822   -0.189833    0.000355    0.037910   -0.005435
10
* Frequency(21) 1436.5936
C    -1.304168   -0.677096    0.064192   -0.049230    0.031181    0.063431
C     0.000204    0.095635   -0.014326   -0.001127   -0.013724    0.001760
H    -2.055928    0.087318   -0.329186    0.255544    0.277632   -0.819802
H    -1.135847   -1.473459    0.885641    0.654949   -0.660696   -0.301167
H    -1.419192   -1.506359   -0.677340   -0.304001   -0.224785    0.276649
C     1.296172   -0.683381    0.133622    0.051006    0.010337   -0.069667
H     1.402865   -1.261679    1.084885    0.295833   -0.298982   -0.198510
H     2.057763    0.153949    0.286894   -0.249665    0.509895    0.702350
H     1.113229   -1.682213   -0.420254   -0.666015   -0.535961    0.480081
O     0.008189    1.307577   -0.190084    0.000355    0.037910   -0.005435
10
* Frequency(21) 1436.5936
C    -1.304637   -0.676799    0.064796   -0.049230    0.031181    0.063431
C     0.000193    0.095504   -0.014309   -0.001127   -0.013724    0.001760
H    -2.053497    0.089960   -0.336986    0.255544    0.277632   -0.819802
H    -1.129616   -1.479746    0.882776    0.654949   -0.660696   -0.301167
H    -1.422085   -1.508497   -0.674708   -0.304001   -0.224785    0.276649
C     1.296657   -0.683283    0.132959    0.051006    0.010337   -0.069667
H     1.405680   -1.264523    1.082996    0.295833   -0.298982   -0.198510
H     2.055387    0.158801    0.293577   -0.249665    0.509895    0.702350
H     1.106893   -1.687312   -0.415687   -0.666015   -0.535961    0.480081
O     0.008192    1.307938   -0.190136    0.000355    0.037910   -0.005435
10
* Frequency(21) 1436.5936
C    -1.303244   -0.677681    0.063002   -0.049230    0.031181    0.063431
C     0.000225    0.095892   -0.014359   -0.001127   -0.013724    0.001760
H    -2.060725    0.082107   -0.313799    0.255544    0.277632   -0.819802
H    -1.148140   -1.461059    0.891294    0.654949   -0.660696   -0.301167
H    -1.413486   -1.502140   -0.682532   -0.304001   -0.224785    0.276649
C     1.295214   -0.683575    0.134929    0.051006    0.010337   -0.069667
H     1.397312   -1.256067    1.088610    0.295833   -0.298982   -0.198510
H     2.062449    0.144379    0.273711   -0.249665    0.509895    0.702350
H     1.125730   -1.672153   -0.429265   -0.666015   -0.535961    0.480081
O     0.008182    1.306865   -0.189982    0.000355    0.037910   -0.005435
10
* Frequency(21) 1436.5936
C    -1.300142   -0.679646    0.059004   -0.049230    0.031181    0.063431
C     0.000296    0.096757   -0.014470   -0.001127   -0.013724    0.001760
H    -2.076828    0.064612   -0.262137    0.255544    0.277632   -0.819802
H    -1.189414   -1.419423    0.910273    0.654949   -0.660696   -0.301167
H    -1.394329   -1.487974   -0.699966   -0.304001   -0.224785    0.276649
C     1.292000   -0.684226    0.139319    0.051006    0.010337   -0.069667
H     1.378670   -1.237226    1.101120    0.295833   -0.298982   -0.198510
H     2.078182    0.112247    0.229451   -0.249665    0.509895    0.702350
H     1.167701   -1.638378   -0.459519   -0.666015   -0.535961    0.480081
O     0.008160    1.304476   -0.189640    0.000355    0.037910   -0.005435
10
* Frequency(21) 1436.5936
C    -1.295666   -0.682481    0.053237   -0.049230    0.031181    0.063431
C     0.000398    0.098005   -0.014630   -0.001127   -0.013724    0.001760
H    -2.100063    0.039369   -0.187599    0.255544    0.277632   -0.819802
H    -1.248963   -1.359352    0.937655    0.654949   -0.660696   -0.301167
H    -1.366689   -1.467536   -0.725120   -0.304001   -0.224785    0.276649
C     1.287362   -0.685166    0.145654    0.051006    0.010337   -0.069667
H     1.351772   -1.210042    1.119169    0.295833   -0.298982   -0.198510
H     2.100882    0.065886    0.165592   -0.249665    0.509895    0.702350
H     1.228256   -1.589648   -0.503168   -0.666015   -0.535961    0.480081
O     0.008127    1.301030   -0.189146    0.000355    0.037910   -0.005435
10
* Frequency(21) 1436.5936
C    -1.290301   -0.685879    0.046325   -0.049230    0.031181    0.063431
C     0.000521    0.099500   -0.014822   -0.001127   -0.013724    0.001760
H    -2.127910    0.009114   -0.098263    0.255544    0.277632   -0.819802
H    -1.320335   -1.287353    0.970474    0.654949   -0.660696   -0.301167
H    -1.333561   -1.443041   -0.755267   -0.304001   -0.224785    0.276649
C     1.281804   -0.686293    0.153246    0.051006    0.010337   -0.069667
H     1.319534   -1.177461    1.140801    0.295833   -0.298982   -0.198510
H     2.128089    0.010321    0.089055   -0.249665    0.509895    0.702350
H     1.300834   -1.531242   -0.555484   -0.666015   -0.535961    0.480081
O     0.008089    1.296898   -0.188553    0.000355    0.037910   -0.005435
10
* Frequency(21) 1436.5936
C    -1.284629   -0.689472    0.039017   -0.049230    0.031181    0.063431
C     0.000651    0.101081   -0.015024   -0.001127   -0.013724    0.001760
H    -2.157353   -0.022873   -0.003808    0.255544    0.277632   -0.819802
H    -1.395795   -1.211230    1.005174    0.654949   -0.660696   -0.301167
H    -1.298535   -1.417142   -0.787141   -0.304001   -0.224785    0.276649
C     1.275927   -0.687484    0.161272    0.051006    0.010337   -0.069667
H     1.285449   -1.143013    1.163673    0.295833   -0.298982   -0.198510
H     2.156854   -0.048427    0.008132   -0.249665    0.509895    0.702350
H     1.377570   -1.469491   -0.610798   -0.666015   -0.535961    0.480081
O     0.008048    1.292530   -0.187927    0.000355    0.037910   -0.005435
10
* Frequency(21) 1436.5936
C    -1.279264   -0.692869    0.032104   -0.049230    0.031181    0.063431
C     0.000774    0.102577   -0.015216   -0.001127   -0.013724    0.001760
H    -2.185201   -0.053128    0.085528    0.255544    0.277632   -0.819802
H    -1.467167   -1.139232    1.037993    0.654949   -0.660696   -0.301167
H    -1.265407   -1.392646   -0.817289   -0.304001   -0.224785    0.276649
C     1.270369   -0.688610    0.168864    0.051006    0.010337   -0.069667
H     1.253211   -1.110432    1.185305    0.295833   -0.298982   -0.198510
H     2.184061   -0.103992   -0.068405   -0.249665    0.509895    0.702350
H     1.450148   -1.411086   -0.663114   -0.666015   -0.535961    0.480081
O     0.008009    1.288399   -0.187335    0.000355    0.037910   -0.005435
10
* Frequency(21) 1436.5936
C    -1.274788   -0.695704    0.026337   -0.049230    0.031181    0.063431
C     0.000876    0.103825   -0.015376   -0.001127   -0.013724    0.001760
H    -2.208435   -0.078371    0.160066    0.255544    0.277632   -0.819802
H    -1.526717   -1.079160    1.065376    0.654949   -0.660696   -0.301167
H    -1.237767   -1.372208   -0.842442   -0.304001   -0.224785    0.276649
C     1.265732   -0.689550    0.175199    0.051006    0.010337   -0.069667
H     1.226314   -1.083248    1.203354    0.295833   -0.298982   -0.198510
H     2.206761   -0.150353   -0.132264   -0.249665    0.509895    0.702350
H     1.510703   -1.362355   -0.706763   -0.666015   -0.535961    0.480081
O     0.007977    1.284952   -0.186841    0.000355    0.037910   -0.005435
10
* Frequency(21) 1436.5936
C    -1.271686   -0.697669    0.022340   -0.049230    0.031181    0.063431
C     0.000947    0.104689   -0.015487   -0.001127   -0.013724    0.001760
H    -2.224539   -0.095866    0.211728    0.255544    0.277632   -0.819802
H    -1.567990   -1.037525    1.084354    0.654949   -0.660696   -0.301167
H    -1.218610   -1.358043   -0.859876   -0.304001   -0.224785    0.276649
C     1.262517   -0.690201    0.179589    0.051006    0.010337   -0.069667
H     1.207671   -1.064407    1.215864    0.295833   -0.298982   -0.198510
H     2.222494   -0.182485   -0.176524   -0.249665    0.509895    0.702350
H     1.552673   -1.328580   -0.737017   -0.666015   -0.535961    0.480081
O     0.007955    1.282563   -0.186498    0.000355    0.037910   -0.005435
10
* Frequency(21) 1436.5936
C    -1.270293   -0.698551    0.020546   -0.049230    0.031181    0.063431
C     0.000979    0.105078   -0.015537   -0.001127   -0.013724    0.001760
H    -2.231767   -0.103719    0.234915    0.255544    0.277632   -0.819802
H    -1.586514   -1.018838    1.092873    0.654949   -0.660696   -0.301167
H    -1.210011   -1.351685   -0.867701   -0.304001   -0.224785    0.276649
C     1.261075   -0.690494    0.181559    0.051006    0.010337   -0.069667
H     1.199304   -1.055951    1.221479    0.295833   -0.298982   -0.198510
H     2.229556   -0.196907   -0.196389   -0.249665    0.509895    0.702350
H     1.571511   -1.313421   -0.750595   -0.666015   -0.535961    0.480081
O     0.007945    1.281491   -0.186344    0.000355    0.037910   -0.005435
10
* Frequency(21) 1436.5936
C    -1.270762   -0.698255    0.021149   -0.049230    0.031181    0.063431
C     0.000968    0.104947   -0.015520   -0.001127   -0.013724    0.001760
H    -2.229335   -0.101077    0.227115    0.255544    0.277632   -0.819802
H    -1.580283   -1.025124    1.090007    0.654949   -0.660696   -0.301167
H    -1.212904   -1.353824   -0.865069   -0.304001   -0.224785    0.276649
C     1.261560   -0.690395    0.180896    0.051006    0.010337   -0.069667
H     1.202119   -1.058796    1.219590    0.295833   -0.298982   -0.198510
H     2.227180   -0.192055   -0.189707   -0.249665    0.509895    0.702350
H     1.565174   -1.318521   -0.746028   -0.666015   -0.535961    0.480081
O     0.007948    1.281852   -0.186396    0.000355    0.037910   -0.005435
10
* Frequency(21) 1436.5936
C    -1.273040   -0.696811    0.024085   -0.049230    0.031181    0.063431
C     0.000916    0.104312   -0.015439   -0.001127   -0.013724    0.001760
H    -2.217508   -0.088228    0.189173    0.255544    0.277632   -0.819802
H    -1.549970   -1.055702    1.076069    0.654949   -0.660696   -0.301167
H    -1.226973   -1.364227   -0.852265   -0.304001   -0.224785    0.276649
C     1.263921   -0.689917    0.177672    0.051006    0.010337   -0.069667
H     1.215810   -1.072633    1.210402    0.295833   -0.298982   -0.198510
H     2.215625   -0.168456   -0.157201   -0.249665    0.509895    0.702350
H     1.534350   -1.343326   -0.723809   -0.666015   -0.535961    0.480081
O     0.007964    1.283606   -0.186648    0.000355    0.037910   -0.005435
10
* Frequency(21) 1436.5936
C    -1.276882   -0.694378    0.029035   -0.049230    0.031181    0.063431
C     0.000828    0.103241   -0.015301   -0.001127   -0.013724    0.001760
H    -2.197567   -0.066563    0.125201    0.255544    0.277632   -0.819802
H    -1.498862   -1.107259    1.052567    0.654949   -0.660696   -0.301167
H    -1.250696   -1.381768   -0.830677   -0.304001   -0.224785    0.276649
C     1.267901   -0.689110    0.172236    0.051006    0.010337   -0.069667
H     1.238895   -1.095964    1.194912    0.295833   -0.298982   -0.198510
H     2.196143   -0.128667   -0.102394   -0.249665    0.509895    0.702350
H     1.482378   -1.385149   -0.686346   -0.666015   -0.535961    0.480081
O     0.007992    1.286565   -0.187072    0.000355    0.037910   -0.005435
10
* Frequency(21) 1436.5936
C    -1.281870   -0.691219    0.035462   -0.049230    0.031181    0.063431
C     0.000714    0.101850   -0.015123   -0.001127   -0.013724    0.001760
H    -2.171673   -0.038431    0.042131    0.255544    0.277632   -0.819802
H    -1.432497   -1.174207    1.022050    0.654949   -0.660696   -0.301167
H    -1.281500   -1.404546   -0.802644   -0.304001   -0.224785    0.276649
C     1.273069   -0.688063    0.165176    0.051006    0.010337   -0.069667
H     1.268872   -1.126260    1.174797    0.295833   -0.298982   -0.198510
H     2.170845   -0.077000   -0.031225   -0.249665    0.509895    0.702350
H     1.414891   -1.439458   -0.637700   -0.666015   -0.535961    0.480081
O     0.008028    1.290406   -0.187623    0.000355    0.037910   -0.005435
10
* Frequency(21) 1436.5936
C    -1.287465   -0.687675    0.042671   -0.049230    0.031181    0.063431
C     0.000586    0.100291   -0.014923   -0.001127   -0.013724    0.001760
H    -2.142632   -0.006880   -0.051035    0.255544    0.277632   -0.819802
H    -1.358065   -1.249292    0.987824    0.654949   -0.660696   -0.301167
H    -1.316048   -1.430091   -0.771204   -0.304001   -0.224785    0.276649
C     1.278866   -0.686888    0.157259    0.051006    0.010337   -0.069667
H     1.302492   -1.160237    1.152237    0.295833   -0.298982   -0.198510
H     2.142472   -0.019053    0.048594   -0.249665    0.509895    0.702350
H     1.339202   -1.500367   -0.583141   -0.666015   -0.535961    0.480081
O     0.008068    1.294714   -0.188240    0.000355    0.037910   -0.005435
