10
* (null), Energy   -1000.0000000
C    -1.287465   -0.687675    0.042671    0.043534    0.266439   -0.029908
C     0.000586    0.100291   -0.014923   -0.179256   -0.000916   -0.014359
H    -2.142632   -0.006880   -0.051035   -0.556088   -0.491418    0.049674
H    -1.358065   -1.249292    0.987824    0.834361    0.092709   -0.074956
H    -1.316048   -1.430091   -0.771204    0.790481    0.102093    0.093059
C     1.278866   -0.686888    0.157259    0.040841   -0.265498    0.040781
H     1.302492   -1.160237    1.152237    0.757533   -0.059911    0.121558
H     2.142472   -0.019053    0.048594   -0.548853    0.494075   -0.075155
H     1.339202   -1.500367   -0.583141    0.863169   -0.138409   -0.032537
O     0.008068    1.294714   -0.188240   -0.063636    0.000036   -0.002527
10
* Frequency(13)  883.3676
C    -1.282518   -0.657396    0.039272    0.043534    0.266439   -0.029908
C    -0.019785    0.100187   -0.016555   -0.179256   -0.000916   -0.014359
H    -2.205828   -0.062727   -0.045390   -0.556088   -0.491418    0.049674
H    -1.263244   -1.238756    0.979306    0.834361    0.092709   -0.074956
H    -1.226214   -1.418489   -0.760629    0.790481    0.102093    0.093059
C     1.283507   -0.717061    0.161894    0.040841   -0.265498    0.040781
H     1.388582   -1.167046    1.166052    0.757533   -0.059911    0.121558
H     2.080097    0.037096    0.040053   -0.548853    0.494075   -0.075155
H     1.437296   -1.516096   -0.586839    0.863169   -0.138409   -0.032537
O     0.000836    1.294718   -0.188527   -0.063636    0.000036   -0.002527
10
* Frequency(13)  883.3676
C    -1.278106   -0.630398    0.036241    0.043534    0.266439   -0.029908
C    -0.037949    0.100094   -0.018010   -0.179256   -0.000916   -0.014359
H    -2.262176   -0.112522   -0.040357   -0.556088   -0.491418    0.049674
H    -1.178699   -1.229362    0.971711    0.834361    0.092709   -0.074956
H    -1.146115   -1.408144   -0.751199    0.790481    0.102093    0.093059
C     1.287646   -0.743964    0.166026    0.040841   -0.265498    0.040781
H     1.465342   -1.173117    1.178369    0.757533   -0.059911    0.121558
H     2.024482    0.087161    0.032437   -0.548853    0.494075   -0.075155
H     1.524761   -1.530121   -0.590136    0.863169   -0.138409   -0.032537
O    -0.005612    1.294722   -0.188783   -0.063636    0.000036   -0.002527
10
* Frequency(13)  883.3676
C    -1.274709   -0.609606    0.033907    0.043534    0.266439   -0.029908
C    -0.051937    0.100022   -0.019130   -0.179256   -0.000916   -0.014359
H    -2.305570   -0.150869   -0.036480   -0.556088   -0.491418    0.049674
H    -1.113591   -1.222127    0.965862    0.834361    0.092709   -0.074956
H    -1.084430   -1.400177   -0.743937    0.790481    0.102093    0.093059
C     1.290832   -0.764681    0.169208    0.040841   -0.265498    0.040781
H     1.524455   -1.177792    1.187855    0.757533   -0.059911    0.121558
H     1.981653    0.125715    0.026573   -0.548853    0.494075   -0.075155
H     1.592117   -1.540922   -0.592675    0.863169   -0.138409   -0.032537
O    -0.010578    1.294725   -0.188981   -0.063636    0.000036   -0.002527
10
* Frequency(13)  883.3676
C    -1.272694   -0.597275    0.032523    0.043534    0.266439   -0.029908
C    -0.060234    0.099980   -0.019795   -0.179256   -0.000916   -0.014359
H    -2.331307   -0.173613   -0.034181   -0.556088   -0.491418    0.049674
H    -1.074975   -1.217836    0.962392    0.834361    0.092709   -0.074956
H    -1.047846   -1.395452   -0.739630    0.790481    0.102093    0.093059
C     1.292723   -0.776969    0.171096    0.040841   -0.265498    0.040781
H     1.559515   -1.180565    1.193481    0.757533   -0.059911    0.121558
H     1.956251    0.148582    0.023094   -0.548853    0.494075   -0.075155
H     1.632066   -1.547328   -0.594180    0.863169   -0.138409   -0.032537
O    -0.013523    1.294727   -0.189098   -0.063636    0.000036   -0.002527
10
* Frequency(13)  883.3676
C    -1.272280   -0.594740    0.032239    0.043534    0.266439   -0.029908
C    -0.061939    0.099971   -0.019931   -0.179256   -0.000916   -0.014359
H    -2.336598   -0.178288   -0.033709   -0.556088   -0.491418    0.049674
H    -1.067036   -1.216954    0.961679    0.834361    0.092709   -0.074956
H    -1.040325   -1.394481   -0.738745    0.790481    0.102093    0.093059
C     1.293111   -0.779495    0.171484    0.040841   -0.265498    0.040781
H     1.566723   -1.181135    1.194637    0.757533   -0.059911    0.121558
H     1.951029    0.153283    0.022379   -0.548853    0.494075   -0.075155
H     1.640279   -1.548644   -0.594490    0.863169   -0.138409   -0.032537
O    -0.014128    1.294727   -0.189122   -0.063636    0.000036   -0.002527
10
* Frequency(13)  883.3676
C    -1.273511   -0.602276    0.033084    0.043534    0.266439   -0.029908
C    -0.056869    0.099997   -0.019525   -0.179256   -0.000916   -0.014359
H    -2.320869   -0.164389   -0.035114   -0.556088   -0.491418    0.049674
H    -1.090635   -1.219577    0.963799    0.834361    0.092709   -0.074956
H    -1.062682   -1.397368   -0.741377    0.790481    0.102093    0.093059
C     1.291956   -0.771986    0.170330    0.040841   -0.265498    0.040781
H     1.545297   -1.179440    1.191199    0.757533   -0.059911    0.121558
H     1.966553    0.139308    0.024505   -0.548853    0.494075   -0.075155
H     1.615865   -1.544730   -0.593570    0.863169   -0.138409   -0.032537
O    -0.012328    1.294726   -0.189050   -0.063636    0.000036   -0.002527
10
* Frequency(13)  883.3676
C    -1.276255   -0.619066    0.034969    0.043534    0.266439   -0.029908
C    -0.045573    0.100055   -0.018620   -0.179256   -0.000916   -0.014359
H    -2.285826   -0.133421   -0.038244   -0.556088   -0.491418    0.049674
H    -1.143214   -1.225419    0.968523    0.834361    0.092709   -0.074956
H    -1.112496   -1.403802   -0.747241    0.790481    0.102093    0.093059
C     1.289382   -0.755255    0.167760    0.040841   -0.265498    0.040781
H     1.497559   -1.175665    1.183539    0.757533   -0.059911    0.121558
H     2.001140    0.108173    0.029241   -0.548853    0.494075   -0.075155
H     1.561471   -1.536008   -0.591519    0.863169   -0.138409   -0.032537
O    -0.008318    1.294724   -0.188891   -0.063636    0.000036   -0.002527
10
* Frequency(13)  883.3676
C    -1.280213   -0.643291    0.037689    0.043534    0.266439   -0.029908
C    -0.029275    0.100138   -0.017315   -0.179256   -0.000916   -0.014359
H    -2.235266   -0.088741   -0.042761   -0.556088   -0.491418    0.049674
H    -1.219076   -1.233848    0.975338    0.834361    0.092709   -0.074956
H    -1.184368   -1.413084   -0.755702    0.790481    0.102093    0.093059
C     1.285669   -0.731115    0.164052    0.040841   -0.265498    0.040781
H     1.428683   -1.170217    1.172486    0.757533   -0.059911    0.121558
H     2.051043    0.063251    0.036074   -0.548853    0.494075   -0.075155
H     1.482990   -1.523423   -0.588561    0.863169   -0.138409   -0.032537
O    -0.002532    1.294720   -0.188661   -0.063636    0.000036   -0.002527
10
* Frequency(13)  883.3676
C    -1.284957   -0.672326    0.040948    0.043534    0.266439   -0.029908
C    -0.009741    0.100238   -0.015750   -0.179256   -0.000916   -0.014359
H    -2.174667   -0.035189   -0.048174   -0.556088   -0.491418    0.049674
H    -1.309999   -1.243951    0.983506    0.834361    0.092709   -0.074956
H    -1.270510   -1.424210   -0.765843    0.790481    0.102093    0.093059
C     1.281219   -0.702183    0.159608    0.040841   -0.265498    0.040781
H     1.346132   -1.163689    1.159240    0.757533   -0.059911    0.121558
H     2.110853    0.009410    0.044264   -0.548853    0.494075   -0.075155
H     1.388927   -1.508340   -0.585015    0.863169   -0.138409   -0.032537
O     0.004402    1.294716   -0.188386   -0.063636    0.000036   -0.002527
10
* Frequency(13)  883.3676
C    -1.289973   -0.703024    0.044394    0.043534    0.266439   -0.029908
C     0.010913    0.100344   -0.014096   -0.179256   -0.000916   -0.014359
H    -2.110597    0.021430   -0.053897   -0.556088   -0.491418    0.049674
H    -1.406131   -1.254632    0.992142    0.834361    0.092709   -0.074956
H    -1.361586   -1.435973   -0.776565    0.790481    0.102093    0.093059
C     1.276513   -0.671593    0.154910    0.040841   -0.265498    0.040781
H     1.258852   -1.156786    1.145234    0.757533   -0.059911    0.121558
H     2.174090   -0.047516    0.052923   -0.548853    0.494075   -0.075155
H     1.289476   -1.492393   -0.581267    0.863169   -0.138409   -0.032537
O     0.011734    1.294712   -0.188095   -0.063636    0.000036   -0.002527
10
* Frequency(13)  883.3676
C    -1.294717   -0.732059    0.047653    0.043534    0.266439   -0.029908
C     0.030447    0.100443   -0.012531   -0.179256   -0.000916   -0.014359
H    -2.049998    0.074982   -0.059310   -0.556088   -0.491418    0.049674
H    -1.497054   -1.264735    1.000310    0.834361    0.092709   -0.074956
H    -1.447728   -1.447098   -0.786706    0.790481    0.102093    0.093059
C     1.272063   -0.642661    0.150466    0.040841   -0.265498    0.040781
H     1.176301   -1.150257    1.131988    0.757533   -0.059911    0.121558
H     2.233900   -0.101357    0.061113   -0.548853    0.494075   -0.075155
H     1.195414   -1.477310   -0.577721    0.863169   -0.138409   -0.032537
O     0.018669    1.294708   -0.187819   -0.063636    0.000036   -0.002527
10
* Frequency(13)  883.3676
C    -1.298675   -0.756284    0.050372    0.043534    0.266439   -0.029908
C     0.046745    0.100527   -0.011225   -0.179256   -0.000916   -0.014359
H    -1.999437    0.119662   -0.063827   -0.556088   -0.491418    0.049674
H    -1.572916   -1.273164    1.007125    0.834361    0.092709   -0.074956
H    -1.519600   -1.456381   -0.795167    0.790481    0.102093    0.093059
C     1.268349   -0.618521    0.146758    0.040841   -0.265498    0.040781
H     1.107424   -1.144810    1.120936    0.757533   -0.059911    0.121558
H     2.283803   -0.146279    0.067946   -0.548853    0.494075   -0.075155
H     1.116933   -1.464726   -0.574763    0.863169   -0.138409   -0.032537
O     0.024455    1.294705   -0.187590   -0.063636    0.000036   -0.002527
10
* Frequency(13)  883.3676
C    -1.301419   -0.773075    0.052257    0.043534    0.266439   -0.029908
C     0.058041    0.100584   -0.010321   -0.179256   -0.000916   -0.014359
H    -1.964394    0.150630   -0.066957   -0.556088   -0.491418    0.049674
H    -1.625495   -1.279007    1.011849    0.834361    0.092709   -0.074956
H    -1.569414   -1.462814   -0.801032    0.790481    0.102093    0.093059
C     1.265776   -0.601790    0.144188    0.040841   -0.265498    0.040781
H     1.059687   -1.141034    1.113275    0.757533   -0.059911    0.121558
H     2.318390   -0.177414    0.072682   -0.548853    0.494075   -0.075155
H     1.062538   -1.456004   -0.572712    0.863169   -0.138409   -0.032537
O     0.028465    1.294703   -0.187430   -0.063636    0.000036   -0.002527
10
* Frequency(13)  883.3676
C    -1.302650   -0.780611    0.053103    0.043534    0.266439   -0.029908
C     0.063111    0.100610   -0.009914   -0.179256   -0.000916   -0.014359
H    -1.948666    0.164529   -0.068362   -0.556088   -0.491418    0.049674
H    -1.649094   -1.281629    1.013969    0.834361    0.092709   -0.074956
H    -1.591771   -1.465702   -0.803664    0.790481    0.102093    0.093059
C     1.264620   -0.594281    0.143034    0.040841   -0.265498    0.040781
H     1.038261   -1.139340    1.109837    0.757533   -0.059911    0.121558
H     2.333914   -0.191389    0.074808   -0.548853    0.494075   -0.075155
H     1.038124   -1.452089   -0.571792    0.863169   -0.138409   -0.032537
O     0.030265    1.294702   -0.187359   -0.063636    0.000036   -0.002527
10
* Frequency(13)  883.3676
C    -1.302236   -0.778075    0.052818    0.043534    0.266439   -0.029908
C     0.061406    0.100602   -0.010051   -0.179256   -0.000916   -0.014359
H    -1.953957    0.159854   -0.067890   -0.556088   -0.491418    0.049674
H    -1.641155   -1.280747    1.013256    0.834361    0.092709   -0.074956
H    -1.584250   -1.464731   -0.802778    0.790481    0.102093    0.093059
C     1.265009   -0.596807    0.143422    0.040841   -0.265498    0.040781
H     1.045468   -1.139910    1.110994    0.757533   -0.059911    0.121558
H     2.328692   -0.186688    0.074093   -0.548853    0.494075   -0.075155
H     1.046337   -1.453406   -0.572102    0.863169   -0.138409   -0.032537
O     0.029660    1.294702   -0.187383   -0.063636    0.000036   -0.002527
10
* Frequency(13)  883.3676
C    -1.300221   -0.765744    0.051434    0.043534    0.266439   -0.029908
C     0.053109    0.100559   -0.010716   -0.179256   -0.000916   -0.014359
H    -1.979693    0.137110   -0.065591   -0.556088   -0.491418    0.049674
H    -1.602540   -1.276456    1.009787    0.834361    0.092709   -0.074956
H    -1.547665   -1.460005   -0.798471    0.790481    0.102093    0.093059
C     1.266899   -0.609095    0.145310    0.040841   -0.265498    0.040781
H     1.080528   -1.142683    1.116620    0.757533   -0.059911    0.121558
H     2.303290   -0.163821    0.070615   -0.548853    0.494075   -0.075155
H     1.086286   -1.459812   -0.573607    0.863169   -0.138409   -0.032537
O     0.026714    1.294704   -0.187500   -0.063636    0.000036   -0.002527
10
* Frequency(13)  883.3676
C    -1.296824   -0.744953    0.049100    0.043534    0.266439   -0.029908
C     0.039121    0.100488   -0.011836   -0.179256   -0.000916   -0.014359
H    -2.023087    0.098763   -0.061714   -0.556088   -0.491418    0.049674
H    -1.537431   -1.269222    1.003938    0.834361    0.092709   -0.074956
H    -1.485981   -1.452039   -0.791210    0.790481    0.102093    0.093059
C     1.270086   -0.629813    0.148492    0.040841   -0.265498    0.040781
H     1.139641   -1.147358    1.126105    0.757533   -0.059911    0.121558
H     2.260461   -0.125267    0.064750   -0.548853    0.494075   -0.075155
H     1.153642   -1.470612   -0.576146    0.863169   -0.138409   -0.032537
O     0.021749    1.294707   -0.187697   -0.063636    0.000036   -0.002527
10
* Frequency(13)  883.3676
C    -1.292412   -0.717955    0.046070    0.043534    0.266439   -0.029908
C     0.020958    0.100395   -0.013291   -0.179256   -0.000916   -0.014359
H    -2.079435    0.048968   -0.056681   -0.556088   -0.491418    0.049674
H    -1.452886   -1.259828    0.996342    0.834361    0.092709   -0.074956
H    -1.405882   -1.441694   -0.781780    0.790481    0.102093    0.093059
C     1.274224   -0.656716    0.152624    0.040841   -0.265498    0.040781
H     1.216402   -1.153429    1.138423    0.757533   -0.059911    0.121558
H     2.204846   -0.075202    0.057135   -0.548853    0.494075   -0.075155
H     1.241107   -1.484637   -0.579443    0.863169   -0.138409   -0.032537
O     0.015300    1.294710   -0.187953   -0.063636    0.000036   -0.002527
10
* Frequency(13)  883.3676
C    -1.287465   -0.687675    0.042671    0.043534    0.266439   -0.029908
C     0.000586    0.100291   -0.014923   -0.179256   -0.000916   -0.014359
H    -2.142632   -0.006880   -0.051035   -0.556088   -0.491418    0.049674
H    -1.358065   -1.249292    0.987824    0.834361    0.092709   -0.074956
H    -1.316048   -1.430091   -0.771204    0.790481    0.102093    0.093059
C     1.278866   -0.686888    0.157259    0.040841   -0.265498    0.040781
H     1.302492   -1.160237    1.152237    0.757533   -0.059911    0.121558
H     2.142472   -0.019053    0.048594   -0.548853    0.494075   -0.075155
H     1.339202   -1.500367   -0.583141    0.863169   -0.138409   -0.032537
O     0.008068    1.294714   -0.188240   -0.063636    0.000036   -0.002527
