10
Coordinates from ORCA-job .\Acetona E -192.784331655243
  C      -2.088450     -1.636400     -0.003410
  C      -0.801640     -0.857400     -0.037910
  H      -2.888720     -1.041000     -0.451280
  H      -2.340800     -1.875430      1.032260
  H      -1.982650     -2.557640     -0.582270
  C       0.476110     -1.649870      0.017770
  H       0.497340     -2.249300      0.931070
  H       1.332370     -0.969700      0.019510
  H       0.542670     -2.296900     -0.860510
  O      -0.796360      0.372930     -0.065230
10
Coordinates from ORCA-job .\Acetona E -192.785804745088
  C      -2.090319     -1.633448     -0.008537
  C      -0.800560     -0.850167     -0.025469
  H      -2.896517     -1.023832     -0.437210
  H      -2.344852     -1.888246      1.031904
  H      -1.994109     -2.562986     -0.589620
  C       0.481124     -1.642429      0.021818
  H       0.505488     -2.262015      0.932080
  H       1.338899     -0.957744      0.026201
  H       0.548277     -2.299835     -0.859060
  O      -0.797561      0.359992     -0.092107
10
Coordinates from ORCA-job .\Acetona E -192.785855981114
  C      -2.090437     -1.631343     -0.020395
  C      -0.799052     -0.843056     -0.076576
  H      -2.916750     -1.011685     -0.396865
  H      -2.304387     -1.897592      1.031120
  H      -2.026433     -2.570722     -0.594951
  C       0.484268     -1.635450      0.021508
  H       0.476811     -2.269485      0.927010
  H       1.341610     -0.949027      0.057498
  H       0.583712     -2.308977     -0.848274
  O      -0.799471      0.356626     -0.100074
10
Coordinates from ORCA-job .\Acetona E -192.786236640223
  C      -2.089844     -1.631942     -0.018333
  C      -0.799540     -0.840673     -0.053574
  H      -2.913148     -1.009914     -0.393233
  H      -2.311122     -1.908620      1.026545
  H      -2.021468     -2.564615     -0.598911
  C       0.483908     -1.635754      0.026134
  H       0.485563     -2.274360      0.925126
  H       1.341478     -0.951618      0.055783
  H       0.573697     -2.304815     -0.845351
  O      -0.799654      0.361601     -0.124186
10
Coordinates from ORCA-job .\Acetona E -192.786270089810
  C      -2.088521     -1.631606     -0.018675
  C      -0.799722     -0.840182     -0.058159
  H      -2.915733     -1.006777     -0.379152
  H      -2.299046     -1.917930      1.025471
  H      -2.025199     -2.560193     -0.605252
  C       0.482444     -1.635163      0.029005
  H       0.478407     -2.276911      0.924915
  H       1.340249     -0.952017      0.064432
  H       0.576613     -2.303342     -0.842108
  O      -0.799622      0.363412     -0.140477
10
Coordinates from ORCA-job .\Acetona E -192.786331576894
  C      -2.086845     -1.630032     -0.018932
  C      -0.800124     -0.839781     -0.071245
  H      -2.922987     -0.998057     -0.343310
  H      -2.270198     -1.941291      1.023126
  H      -2.037364     -2.548209     -0.622263
  C       0.479913     -1.633334      0.036291
  H       0.462158     -2.282483      0.925895
  H       1.337682     -0.951529      0.086117
  H       0.586573     -2.299357     -0.834778
  O      -0.798937      0.363362     -0.180900
10
Coordinates from ORCA-job .\Acetona E -192.786357411064
  C      -2.086964     -1.628624     -0.017438
  C      -0.800473     -0.840505     -0.080354
  H      -2.928096     -0.991899     -0.318362
  H      -2.251805     -1.958923      1.021896
  H      -2.046960     -2.537412     -0.635960
  C       0.478694     -1.632529      0.041866
  H       0.452761     -2.285145      0.928578
  H       1.335960     -0.950838      0.100406
  H       0.594430     -2.295766     -0.830461
  O      -0.797677      0.360933     -0.210171
10
Coordinates from ORCA-job .\Acetona E -192.786398589234
  C      -2.088416     -1.626489     -0.013188
  C      -0.801005     -0.842048     -0.092150
  H      -2.934852     -0.982870     -0.282734
  H      -2.228612     -1.986773      1.019753
  H      -2.061816     -2.518491     -0.657622
  C       0.477606     -1.631969      0.050521
  H       0.442567     -2.287486      0.934743
  H       1.333488     -0.949300      0.118910
  H       0.605988     -2.290265     -0.824430
  O      -0.795077      0.354981     -0.253805
10
Coordinates from ORCA-job .\Acetona E -192.786392564939
  C      -2.089747     -1.625672     -0.009772
  C      -0.801213     -0.842678     -0.095991
  H      -2.937384     -0.978638     -0.267380
  H      -2.221200     -2.001645      1.018498
  H      -2.068429     -2.507367     -0.669197
  C       0.477567     -1.632276      0.054736
  H       0.440873     -2.286820      0.939588
  H       1.332476     -0.948298      0.124490
  H       0.610462     -2.288646     -0.821273
  O      -0.793536      0.351329     -0.273698
10
Coordinates from ORCA-job .\Acetona E -192.786402808756
  C      -2.090172     -1.625724     -0.008506
  C      -0.801188     -0.842464     -0.095658
  H      -2.937462     -0.977567     -0.264721
  H      -2.221628     -2.006621      1.017744
  H      -2.069182     -2.503516     -0.673304
  C       0.477760     -1.632667      0.055625
  H       0.442568     -2.284613      0.942396
  H       1.332382     -0.947932      0.122567
  H       0.609980     -2.290323     -0.819488
  O      -0.793189      0.350716     -0.276654
10
Coordinates from ORCA-job .\Acetona E -192.786404372800
  C      -2.090130     -1.625884     -0.008390
  C      -0.801129     -0.842169     -0.095219
  H      -2.937235     -0.976876     -0.263191
  H      -2.221852     -2.009883      1.016552
  H      -2.069307     -2.501347     -0.676244
  C       0.477802     -1.632766      0.055911
  H       0.443904     -2.281937      0.944719
  H       1.332421     -0.947700      0.119706
  H       0.608593     -2.293067     -0.817334
  O      -0.793197      0.350917     -0.276512
10
Coordinates from ORCA-job .\Acetona E -192.786405564836
  C      -2.089937     -1.626124     -0.008863
  C      -0.801044     -0.841825     -0.094799
  H      -2.937035     -0.975429     -0.259459
  H      -2.221029     -2.016165      1.013745
  H      -2.070044     -2.497386     -0.682172
  C       0.477814     -1.632691      0.056464
  H       0.445953     -2.276295      0.949357
  H       1.332633     -0.947338      0.114206
  H       0.605855     -2.298787     -0.812648
  O      -0.793297      0.351329     -0.275831
10
Coordinates from ORCA-job .\Acetona E -192.786419581446
  C      -2.089686     -1.626410     -0.010230
  C      -0.800955     -0.841544     -0.094523
  H      -2.937160     -0.972723     -0.251681
  H      -2.218119     -2.027654      1.008247
  H      -2.072255     -2.490131     -0.693243
  C       0.477836     -1.632343      0.057652
  H       0.449200     -2.265849      0.957875
  H       1.333204     -0.946894      0.104770
  H       0.601257     -2.308932     -0.803843
  O      -0.793451      0.351770     -0.275025
10
Coordinates from ORCA-job .\Acetona E -192.786415060600
  C      -2.089323     -1.626928     -0.013796
  C      -0.800841     -0.841298     -0.094202
  H      -2.937892     -0.966945     -0.233297
  H      -2.210321     -2.053596      0.995028
  H      -2.078232     -2.473279     -0.718403
  C       0.477905     -1.631464      0.060531
  H       0.456513     -2.241589      0.977105
  H       1.334632     -0.946575      0.083631
  H       0.591163     -2.331421     -0.783260
  O      -0.793734      0.352387     -0.273336
10
Coordinates from ORCA-job .\Acetona E -192.786411767715
  C      -2.089258     -1.627215     -0.017404
  C      -0.800840     -0.841390     -0.094230
  H      -2.939080     -0.962304     -0.216049
  H      -2.201985     -2.076654      0.982415
  H      -2.084652     -2.457719     -0.740839
  C       0.477947     -1.630643      0.063381
  H       0.462985     -2.219463      0.994116
  H       1.336040     -0.947150      0.065281
  H       0.582570     -2.350698     -0.764359
  O      -0.793856      0.352525     -0.272312
10
Coordinates from ORCA-job .\Acetona E -192.786422127928
  C      -2.089453     -1.627477     -0.022087
  C      -0.800942     -0.841643     -0.094301
  H      -2.940954     -0.957370     -0.193987
  H      -2.190646     -2.105560      0.965612
  H      -2.093491     -2.437274     -0.768908
  C       0.477925     -1.629781      0.067313
  H       0.471578     -2.190930      1.015367
  H       1.337825     -0.949052      0.042307
  H       0.571849     -2.374024     -0.739991
  O      -0.793821      0.352402     -0.271325
10
Coordinates from ORCA-job .\Acetona E -192.786421197020
  C      -2.089625     -1.627814     -0.026249
  C      -0.801058     -0.841683     -0.093947
  H      -2.942471     -0.953910     -0.174804
  H      -2.180898     -2.131119      0.949787
  H      -2.101120     -2.418389     -0.793534
  C       0.477782     -1.629263      0.070917
  H       0.480135     -2.164604      1.033991
  H       1.339162     -0.951764      0.020977
  H       0.561704     -2.394621     -0.717427
  O      -0.793741      0.352457     -0.269712
10
Coordinates from ORCA-job .\Acetona E -192.786425493153
  C      -2.089613     -1.628248     -0.029743
  C      -0.801132     -0.841523     -0.093413
  H      -2.943426     -0.951546     -0.158637
  H      -2.173105     -2.152846      0.935641
  H      -2.107221     -2.401829     -0.814187
  C       0.477567     -1.628953      0.073950
  H       0.487918     -2.141585      1.049365
  H       1.339963     -0.954674      0.002166
  H       0.552632     -2.412258     -0.697331
  O      -0.793714      0.352752     -0.267812
10
Coordinates from ORCA-job .\Acetona E -192.786418770832
  C      -2.089439     -1.628924     -0.034083
  C      -0.801194     -0.841319     -0.092832
  H      -2.944244     -0.949081     -0.137309
  H      -2.163341     -2.180824      0.916611
  H      -2.115077     -2.379788     -0.840225
  C       0.477248     -1.628594      0.077843
  H       0.497908     -2.111758      1.068141
  H       1.340570     -0.959011     -0.021814
  H       0.541149     -2.434543     -0.670549
  O      -0.793708      0.353132     -0.265783
10
Coordinates from ORCA-job .\Acetona E -192.786421168518
  C      -2.089300     -1.629157     -0.035251
  C      -0.801192     -0.841258     -0.092866
  H      -2.944390     -0.948438     -0.130123
  H      -2.160214     -2.189653      0.910562
  H      -2.117582     -2.372614     -0.848186
  C       0.477124     -1.628456      0.079104
  H       0.500589     -2.102802      1.073613
  H       1.340673     -0.960404     -0.028680
  H       0.537847     -2.441108     -0.662185
  O      -0.793685      0.353181     -0.265988
10
Coordinates from ORCA-job .\Acetona E -192.786421230435
  C      -2.089226     -1.629199     -0.035333
  C      -0.801175     -0.841232     -0.092927
  H      -2.944392     -0.948403     -0.129040
  H      -2.159826     -2.190815      0.909820
  H      -2.117809     -2.371615     -0.849208
  C       0.477105     -1.628411      0.079255
  H       0.500731     -2.101760      1.074233
  H       1.340711     -0.960576     -0.029411
  H       0.537441     -2.441890     -0.661145
  O      -0.793692      0.353191     -0.266244
