10
* (null), Energy   -1000.0000000
C    -1.287465   -0.687675    0.042671   -0.005162    0.014437    0.126705
C     0.000586    0.100291   -0.014923   -0.000044    0.000244   -0.000063
H    -2.142632   -0.006880   -0.051035    0.024190   -0.017228    0.023146
H    -1.358065   -1.249292    0.987824    0.059286    0.508705   -0.832262
H    -1.316048   -1.430091   -0.771204   -0.023017   -0.665796   -0.710776
C     1.278866   -0.686888    0.157259    0.006266   -0.023466   -0.130463
H     1.302492   -1.160237    1.152237    0.019301   -0.445538    0.905776
H     2.142472   -0.019053    0.048594   -0.040515   -0.035622   -0.015816
H     1.339202   -1.500367   -0.583141   -0.051874    0.761098    0.675487
O     0.008068    1.294714   -0.188240   -0.000000   -0.000059   -0.000001
10
* Frequency(26) 3143.4949
C    -1.288052   -0.686035    0.057070   -0.005162    0.014437    0.126705
C     0.000581    0.100319   -0.014930   -0.000044    0.000244   -0.000063
H    -2.139883   -0.008837   -0.048405    0.024190   -0.017228    0.023146
H    -1.351328   -1.191480    0.893242    0.059286    0.508705   -0.832262
H    -1.318664   -1.505756   -0.851980   -0.023017   -0.665796   -0.710776
C     1.279578   -0.689555    0.142433    0.006266   -0.023466   -0.130463
H     1.304685   -1.210870    1.255174    0.019301   -0.445538    0.905776
H     2.137867   -0.023101    0.046796   -0.040515   -0.035622   -0.015816
H     1.333306   -1.413872   -0.506375   -0.051874    0.761098    0.675487
O     0.008068    1.294708   -0.188240   -0.000000   -0.000059   -0.000001
10
* Frequency(26) 3143.4949
C    -1.288575   -0.684572    0.069909   -0.005162    0.014437    0.126705
C     0.000577    0.100343   -0.014936   -0.000044    0.000244   -0.000063
H    -2.137432   -0.010583   -0.046060    0.024190   -0.017228    0.023146
H    -1.345320   -1.139933    0.808909    0.059286    0.508705   -0.832262
H    -1.320996   -1.573221   -0.924003   -0.023017   -0.665796   -0.710776
C     1.280213   -0.691933    0.129213    0.006266   -0.023466   -0.130463
H     1.306641   -1.256016    1.346956    0.019301   -0.445538    0.905776
H     2.133762   -0.026711    0.045193   -0.040515   -0.035622   -0.015816
H     1.328050   -1.336750   -0.437929   -0.051874    0.761098    0.675487
O     0.008068    1.294702   -0.188241   -0.000000   -0.000059   -0.000001
10
* Frequency(26) 3143.4949
C    -1.288978   -0.683445    0.079796   -0.005162    0.014437    0.126705
C     0.000573    0.100362   -0.014941   -0.000044    0.000244   -0.000063
H    -2.135544   -0.011928   -0.044253    0.024190   -0.017228    0.023146
H    -1.340694   -1.100237    0.743965    0.059286    0.508705   -0.832262
H    -1.322792   -1.625175   -0.979468   -0.023017   -0.665796   -0.710776
C     1.280702   -0.693764    0.119032    0.006266   -0.023466   -0.130463
H     1.308147   -1.290783    1.417637    0.019301   -0.445538    0.905776
H     2.130600   -0.029490    0.043959   -0.040515   -0.035622   -0.015816
H     1.324002   -1.277359   -0.385218   -0.051874    0.761098    0.675487
O     0.008068    1.294697   -0.188241   -0.000000   -0.000059   -0.000001
10
* Frequency(26) 3143.4949
C    -1.289217   -0.682777    0.085660   -0.005162    0.014437    0.126705
C     0.000571    0.100374   -0.014944   -0.000044    0.000244   -0.000063
H    -2.134424   -0.012725   -0.043182    0.024190   -0.017228    0.023146
H    -1.337950   -1.076693    0.705446    0.059286    0.508705   -0.832262
H    -1.323858   -1.655989   -1.012364   -0.023017   -0.665796   -0.710776
C     1.280992   -0.694850    0.112994    0.006266   -0.023466   -0.130463
H     1.309040   -1.311404    1.459558    0.019301   -0.445538    0.905776
H     2.128725   -0.031139    0.043227   -0.040515   -0.035622   -0.015816
H     1.321601   -1.242134   -0.353955   -0.051874    0.761098    0.675487
O     0.008068    1.294694   -0.188241   -0.000000   -0.000059   -0.000001
10
* Frequency(26) 3143.4949
C    -1.289266   -0.682640    0.086866   -0.005162    0.014437    0.126705
C     0.000571    0.100376   -0.014945   -0.000044    0.000244   -0.000063
H    -2.134194   -0.012889   -0.042962    0.024190   -0.017228    0.023146
H    -1.337386   -1.071853    0.697527    0.059286    0.508705   -0.832262
H    -1.324077   -1.662324   -1.019126   -0.023017   -0.665796   -0.710776
C     1.281052   -0.695073    0.111753    0.006266   -0.023466   -0.130463
H     1.309224   -1.315643    1.468176    0.019301   -0.445538    0.905776
H     2.128340   -0.031478    0.043077   -0.040515   -0.035622   -0.015816
H     1.321108   -1.234892   -0.347528   -0.051874    0.761098    0.675487
O     0.008068    1.294694   -0.188241   -0.000000   -0.000059   -0.000001
10
* Frequency(26) 3143.4949
C    -1.289120   -0.683048    0.083282   -0.005162    0.014437    0.126705
C     0.000572    0.100369   -0.014943   -0.000044    0.000244   -0.000063
H    -2.134878   -0.012402   -0.043617    0.024190   -0.017228    0.023146
H    -1.339063   -1.086241    0.721067    0.059286    0.508705   -0.832262
H    -1.323425   -1.643493   -0.999023   -0.023017   -0.665796   -0.710776
C     1.280874   -0.694409    0.115443    0.006266   -0.023466   -0.130463
H     1.308678   -1.303041    1.442557    0.019301   -0.445538    0.905776
H     2.129486   -0.030470    0.043524   -0.040515   -0.035622   -0.015816
H     1.322575   -1.256419   -0.366634   -0.051874    0.761098    0.675487
O     0.008068    1.294695   -0.188241   -0.000000   -0.000059   -0.000001
10
* Frequency(26) 3143.4949
C    -1.288794   -0.683958    0.075298   -0.005162    0.014437    0.126705
C     0.000575    0.100354   -0.014939   -0.000044    0.000244   -0.000063
H    -2.136403   -0.011316   -0.045075    0.024190   -0.017228    0.023146
H    -1.342799   -1.118298    0.773514    0.059286    0.508705   -0.832262
H    -1.321975   -1.601536   -0.954232   -0.023017   -0.665796   -0.710776
C     1.280479   -0.692931    0.123664    0.006266   -0.023466   -0.130463
H     1.307462   -1.274965    1.385478    0.019301   -0.445538    0.905776
H     2.132039   -0.028226    0.044521   -0.040515   -0.035622   -0.015816
H     1.325844   -1.304382   -0.409201   -0.051874    0.761098    0.675487
O     0.008068    1.294699   -0.188241   -0.000000   -0.000059   -0.000001
10
* Frequency(26) 3143.4949
C    -1.288325   -0.685270    0.063777   -0.005162    0.014437    0.126705
C     0.000579    0.100331   -0.014933   -0.000044    0.000244   -0.000063
H    -2.138602   -0.009749   -0.047180    0.024190   -0.017228    0.023146
H    -1.348189   -1.164551    0.849185    0.059286    0.508705   -0.832262
H    -1.319882   -1.541001   -0.889606   -0.023017   -0.665796   -0.710776
C     1.279910   -0.690797    0.135526    0.006266   -0.023466   -0.130463
H     1.305707   -1.234456    1.303123    0.019301   -0.445538    0.905776
H     2.135722   -0.024987    0.045959   -0.040515   -0.035622   -0.015816
H     1.330560   -1.373582   -0.470617   -0.051874    0.761098    0.675487
O     0.008068    1.294705   -0.188241   -0.000000   -0.000059   -0.000001
10
* Frequency(26) 3143.4949
C    -1.287762   -0.686844    0.049970   -0.005162    0.014437    0.126705
C     0.000584    0.100305   -0.014927   -0.000044    0.000244   -0.000063
H    -2.141238   -0.007872   -0.049702    0.024190   -0.017228    0.023146
H    -1.354650   -1.219986    0.939879    0.059286    0.508705   -0.832262
H    -1.317374   -1.468447   -0.812151   -0.023017   -0.665796   -0.710776
C     1.279227   -0.688240    0.149743    0.006266   -0.023466   -0.130463
H     1.303604   -1.185904    1.204417    0.019301   -0.445538    0.905776
H     2.140138   -0.021105    0.047682   -0.040515   -0.035622   -0.015816
H     1.336213   -1.456521   -0.544227   -0.051874    0.761098    0.675487
O     0.008068    1.294711   -0.188240   -0.000000   -0.000059   -0.000001
10
* Frequency(26) 3143.4949
C    -1.287168   -0.688507    0.035371   -0.005162    0.014437    0.126705
C     0.000589    0.100277   -0.014919   -0.000044    0.000244   -0.000063
H    -2.144025   -0.005887   -0.052369    0.024190   -0.017228    0.023146
H    -1.361480   -1.278597    1.035769    0.059286    0.508705   -0.832262
H    -1.314722   -1.391736   -0.730258   -0.023017   -0.665796   -0.710776
C     1.278505   -0.685536    0.164775    0.006266   -0.023466   -0.130463
H     1.301380   -1.134571    1.100057    0.019301   -0.445538    0.905776
H     2.144806   -0.017001    0.049505   -0.040515   -0.035622   -0.015816
H     1.342190   -1.544212   -0.622054   -0.051874    0.761098    0.675487
O     0.008068    1.294718   -0.188240   -0.000000   -0.000059   -0.000001
10
* Frequency(26) 3143.4949
C    -1.286605   -0.690080    0.021564   -0.005162    0.014437    0.126705
C     0.000593    0.100250   -0.014912   -0.000044    0.000244   -0.000063
H    -2.146661   -0.004010   -0.054891    0.024190   -0.017228    0.023146
H    -1.367941   -1.334033    1.126464    0.059286    0.508705   -0.832262
H    -1.312214   -1.319182   -0.652802   -0.023017   -0.665796   -0.710776
C     1.277822   -0.682979    0.178992    0.006266   -0.023466   -0.130463
H     1.299277   -1.086019    1.001352    0.019301   -0.445538    0.905776
H     2.149221   -0.013119    0.051228   -0.040515   -0.035622   -0.015816
H     1.347843   -1.627152   -0.695665   -0.051874    0.761098    0.675487
O     0.008068    1.294724   -0.188240   -0.000000   -0.000059   -0.000001
10
* Frequency(26) 3143.4949
C    -1.286136   -0.691393    0.010044   -0.005162    0.014437    0.126705
C     0.000597    0.100228   -0.014907   -0.000044    0.000244   -0.000063
H    -2.148861   -0.002443   -0.056996    0.024190   -0.017228    0.023146
H    -1.373331   -1.380285    1.202134    0.059286    0.508705   -0.832262
H    -1.310121   -1.258647   -0.588177   -0.023017   -0.665796   -0.710776
C     1.277252   -0.680846    0.190854    0.006266   -0.023466   -0.130463
H     1.297522   -1.045510    0.918997    0.019301   -0.445538    0.905776
H     2.152904   -0.009880    0.052666   -0.040515   -0.035622   -0.015816
H     1.352559   -1.696352   -0.757081   -0.051874    0.761098    0.675487
O     0.008068    1.294730   -0.188240   -0.000000   -0.000059   -0.000001
10
* Frequency(26) 3143.4949
C    -1.285810   -0.692303    0.002059   -0.005162    0.014437    0.126705
C     0.000600    0.100213   -0.014903   -0.000044    0.000244   -0.000063
H    -2.150385   -0.001358   -0.058454    0.024190   -0.017228    0.023146
H    -1.377067   -1.412342    1.254581    0.059286    0.508705   -0.832262
H    -1.308670   -1.216690   -0.543386   -0.023017   -0.665796   -0.710776
C     1.276857   -0.679367    0.199075    0.006266   -0.023466   -0.130463
H     1.296306   -1.017433    0.861917    0.019301   -0.445538    0.905776
H     2.155457   -0.007635    0.053663   -0.040515   -0.035622   -0.015816
H     1.355828   -1.744314   -0.799648   -0.051874    0.761098    0.675487
O     0.008068    1.294733   -0.188240   -0.000000   -0.000059   -0.000001
10
* Frequency(26) 3143.4949
C    -1.285664   -0.692711   -0.001525   -0.005162    0.014437    0.126705
C     0.000601    0.100206   -0.014901   -0.000044    0.000244   -0.000063
H    -2.151069   -0.000870   -0.059109    0.024190   -0.017228    0.023146
H    -1.378744   -1.426730    1.278121    0.059286    0.508705   -0.832262
H    -1.308019   -1.197858   -0.523282   -0.023017   -0.665796   -0.710776
C     1.276680   -0.678703    0.202765    0.006266   -0.023466   -0.130463
H     1.295760   -1.004832    0.836298    0.019301   -0.445538    0.905776
H     2.156603   -0.006628    0.054110   -0.040515   -0.035622   -0.015816
H     1.357296   -1.765841   -0.818754   -0.051874    0.761098    0.675487
O     0.008068    1.294735   -0.188240   -0.000000   -0.000059   -0.000001
10
* Frequency(26) 3143.4949
C    -1.285713   -0.692574   -0.000319   -0.005162    0.014437    0.126705
C     0.000601    0.100208   -0.014902   -0.000044    0.000244   -0.000063
H    -2.150839   -0.001034   -0.058889    0.024190   -0.017228    0.023146
H    -1.378180   -1.421890    1.270202    0.059286    0.508705   -0.832262
H    -1.308238   -1.204193   -0.530045   -0.023017   -0.665796   -0.710776
C     1.276740   -0.678927    0.201524    0.006266   -0.023466   -0.130463
H     1.295943   -1.009071    0.844916    0.019301   -0.445538    0.905776
H     2.156218   -0.006967    0.053960   -0.040515   -0.035622   -0.015816
H     1.356802   -1.758600   -0.812327   -0.051874    0.761098    0.675487
O     0.008068    1.294735   -0.188240   -0.000000   -0.000059   -0.000001
10
* Frequency(26) 3143.4949
C    -1.285952   -0.691905    0.005545   -0.005162    0.014437    0.126705
C     0.000599    0.100219   -0.014904   -0.000044    0.000244   -0.000063
H    -2.149720   -0.001832   -0.057818    0.024190   -0.017228    0.023146
H    -1.375436   -1.398346    1.231684    0.059286    0.508705   -0.832262
H    -1.309304   -1.235007   -0.562941   -0.023017   -0.665796   -0.710776
C     1.277030   -0.680013    0.195486    0.006266   -0.023466   -0.130463
H     1.296837   -1.029691    0.886837    0.019301   -0.445538    0.905776
H     2.154343   -0.008616    0.053228   -0.040515   -0.035622   -0.015816
H     1.354401   -1.723375   -0.781064   -0.051874    0.761098    0.675487
O     0.008068    1.294732   -0.188240   -0.000000   -0.000059   -0.000001
10
* Frequency(26) 3143.4949
C    -1.286355   -0.690779    0.015432   -0.005162    0.014437    0.126705
C     0.000595    0.100238   -0.014909   -0.000044    0.000244   -0.000063
H    -2.147832   -0.003176   -0.056011    0.024190   -0.017228    0.023146
H    -1.370810   -1.358650    1.166739    0.059286    0.508705   -0.832262
H    -1.311100   -1.286962   -0.618406   -0.023017   -0.665796   -0.710776
C     1.277519   -0.681844    0.185305    0.006266   -0.023466   -0.130463
H     1.298343   -1.064458    0.957518    0.019301   -0.445538    0.905776
H     2.151181   -0.011395    0.051994   -0.040515   -0.035622   -0.015816
H     1.350353   -1.663983   -0.728353   -0.051874    0.761098    0.675487
O     0.008068    1.294727   -0.188240   -0.000000   -0.000059   -0.000001
10
* Frequency(26) 3143.4949
C    -1.286878   -0.689316    0.028271   -0.005162    0.014437    0.126705
C     0.000591    0.100263   -0.014916   -0.000044    0.000244   -0.000063
H    -2.145381   -0.004922   -0.053666    0.024190   -0.017228    0.023146
H    -1.364803   -1.307103    1.082406    0.059286    0.508705   -0.832262
H    -1.313432   -1.354427   -0.690428   -0.023017   -0.665796   -0.710776
C     1.278154   -0.684221    0.172086    0.006266   -0.023466   -0.130463
H     1.300298   -1.109604    1.049300    0.019301   -0.445538    0.905776
H     2.147076   -0.015005    0.050391   -0.040515   -0.035622   -0.015816
H     1.345097   -1.586862   -0.659907   -0.051874    0.761098    0.675487
O     0.008068    1.294721   -0.188240   -0.000000   -0.000059   -0.000001
10
* Frequency(26) 3143.4949
C    -1.287465   -0.687675    0.042671   -0.005162    0.014437    0.126705
C     0.000586    0.100291   -0.014923   -0.000044    0.000244   -0.000063
H    -2.142632   -0.006880   -0.051035    0.024190   -0.017228    0.023146
H    -1.358065   -1.249292    0.987824    0.059286    0.508705   -0.832262
H    -1.316048   -1.430091   -0.771204   -0.023017   -0.665796   -0.710776
C     1.278866   -0.686888    0.157259    0.006266   -0.023466   -0.130463
H     1.302492   -1.160237    1.152237    0.019301   -0.445538    0.905776
H     2.142472   -0.019053    0.048594   -0.040515   -0.035622   -0.015816
H     1.339202   -1.500367   -0.583141   -0.051874    0.761098    0.675487
O     0.008068    1.294714   -0.188240   -0.000000   -0.000059   -0.000001
