10
* (null), Energy   -1000.0000000
C    -1.287465   -0.687675    0.042671    0.048748    0.054952   -0.003053
C     0.000586    0.100291   -0.014923   -0.006340    0.000023   -0.000166
H    -2.142632   -0.006880   -0.051035   -0.480425    0.398314   -0.053642
H    -1.358065   -1.249292    0.987824   -0.049376   -0.438949    0.765466
H    -1.316048   -1.430091   -0.771204   -0.016164   -0.599445   -0.676487
C     1.278866   -0.686888    0.157259    0.048209   -0.053941    0.014110
H     1.302492   -1.160237    1.152237   -0.012329    0.380755   -0.830402
H     2.142472   -0.019053    0.048594   -0.486474   -0.391519    0.065184
H     1.339202   -1.500367   -0.583141   -0.040805    0.638556    0.600160
O     0.008068    1.294714   -0.188240    0.000367   -0.000001   -0.000003
10
* Frequency(24) 3055.9018
C    -1.281925   -0.681430    0.042324    0.048748    0.054952   -0.003053
C    -0.000134    0.100293   -0.014942   -0.006340    0.000023   -0.000166
H    -2.197230    0.038387   -0.057132   -0.480425    0.398314   -0.053642
H    -1.363676   -1.299176    1.074815   -0.049376   -0.438949    0.765466
H    -1.317885   -1.498215   -0.848084   -0.016164   -0.599445   -0.676487
C     1.284344   -0.693018    0.158863    0.048209   -0.053941    0.014110
H     1.301091   -1.116966    1.057866   -0.012329    0.380755   -0.830402
H     2.087186   -0.063547    0.056001   -0.486474   -0.391519    0.065184
H     1.334564   -1.427798   -0.514936   -0.040805    0.638556    0.600160
O     0.008110    1.294714   -0.188241    0.000367   -0.000001   -0.000003
10
* Frequency(24) 3055.9018
C    -1.276985   -0.675862    0.042014    0.048748    0.054952   -0.003053
C    -0.000777    0.100296   -0.014959   -0.006340    0.000023   -0.000166
H    -2.245911    0.078748   -0.062567   -0.480425    0.398314   -0.053642
H    -1.368680   -1.343654    1.152380   -0.049376   -0.438949    0.765466
H    -1.319523   -1.558957   -0.916632   -0.016164   -0.599445   -0.676487
C     1.289229   -0.698484    0.160292    0.048209   -0.053941    0.014110
H     1.299841   -1.078385    0.973722   -0.012329    0.380755   -0.830402
H     2.037892   -0.103220    0.062606   -0.486474   -0.391519    0.065184
H     1.330430   -1.363094   -0.454122   -0.040805    0.638556    0.600160
O     0.008147    1.294714   -0.188241    0.000367   -0.000001   -0.000003
10
* Frequency(24) 3055.9018
C    -1.273182   -0.671574    0.041776    0.048748    0.054952   -0.003053
C    -0.001272    0.100297   -0.014972   -0.006340    0.000023   -0.000166
H    -2.283400    0.109830   -0.066753   -0.480425    0.398314   -0.053642
H    -1.372533   -1.377907    1.212112   -0.049376   -0.438949    0.765466
H    -1.320784   -1.605734   -0.969421   -0.016164   -0.599445   -0.676487
C     1.292991   -0.702693    0.161393    0.048209   -0.053941    0.014110
H     1.298879   -1.048673    0.908922   -0.012329    0.380755   -0.830402
H     1.999931   -0.133771    0.067693   -0.486474   -0.391519    0.065184
H     1.327245   -1.313265   -0.407289   -0.040805    0.638556    0.600160
O     0.008176    1.294714   -0.188241    0.000367   -0.000001   -0.000003
10
* Frequency(24) 3055.9018
C    -1.270925   -0.669031    0.041635    0.048748    0.054952   -0.003053
C    -0.001565    0.100298   -0.014979   -0.006340    0.000023   -0.000166
H    -2.305635    0.128265   -0.069236   -0.480425    0.398314   -0.053642
H    -1.374818   -1.398223    1.247539   -0.049376   -0.438949    0.765466
H    -1.321532   -1.633477   -1.000730   -0.016164   -0.599445   -0.676487
C     1.295223   -0.705190    0.162046    0.048209   -0.053941    0.014110
H     1.298309   -1.031051    0.870490   -0.012329    0.380755   -0.830402
H     1.977416   -0.151892    0.070710   -0.486474   -0.391519    0.065184
H     1.325357   -1.283711   -0.379513   -0.040805    0.638556    0.600160
O     0.008193    1.294714   -0.188241    0.000367   -0.000001   -0.000003
10
* Frequency(24) 3055.9018
C    -1.270462   -0.668508    0.041606    0.048748    0.054952   -0.003053
C    -0.001625    0.100299   -0.014981   -0.006340    0.000023   -0.000166
H    -2.310206    0.132054   -0.069746   -0.480425    0.398314   -0.053642
H    -1.375288   -1.402399    1.254822   -0.049376   -0.438949    0.765466
H    -1.321686   -1.639181   -1.007166   -0.016164   -0.599445   -0.676487
C     1.295681   -0.705703    0.162181    0.048209   -0.053941    0.014110
H     1.298191   -1.027428    0.862589   -0.012329    0.380755   -0.830402
H     1.972787   -0.155617    0.071330   -0.486474   -0.391519    0.065184
H     1.324969   -1.277636   -0.373803   -0.040805    0.638556    0.600160
O     0.008196    1.294714   -0.188241    0.000367   -0.000001   -0.000003
10
* Frequency(24) 3055.9018
C    -1.271840   -0.670062    0.041692    0.048748    0.054952   -0.003053
C    -0.001446    0.100298   -0.014976   -0.006340    0.000023   -0.000166
H    -2.296618    0.120788   -0.068229   -0.480425    0.398314   -0.053642
H    -1.373891   -1.389984    1.233172   -0.049376   -0.438949    0.765466
H    -1.321229   -1.622226   -0.988032   -0.016164   -0.599445   -0.676487
C     1.294318   -0.704178    0.161781    0.048209   -0.053941    0.014110
H     1.298540   -1.038197    0.886076   -0.012329    0.380755   -0.830402
H     1.986546   -0.144543    0.069486   -0.486474   -0.391519    0.065184
H     1.326123   -1.295697   -0.390777   -0.040805    0.638556    0.600160
O     0.008186    1.294714   -0.188241    0.000367   -0.000001   -0.000003
10
* Frequency(24) 3055.9018
C    -1.274912   -0.673525    0.041885    0.048748    0.054952   -0.003053
C    -0.001047    0.100297   -0.014966   -0.006340    0.000023   -0.000166
H    -2.266343    0.095688   -0.064849   -0.480425    0.398314   -0.053642
H    -1.370780   -1.362322    1.184934   -0.049376   -0.438949    0.765466
H    -1.320210   -1.584451   -0.945402   -0.016164   -0.599445   -0.676487
C     1.291280   -0.700778    0.160892    0.048209   -0.053941    0.014110
H     1.299317   -1.062191    0.938406   -0.012329    0.380755   -0.830402
H     2.017203   -0.119870    0.065379   -0.486474   -0.391519    0.065184
H     1.328694   -1.335937   -0.428598   -0.040805    0.638556    0.600160
O     0.008163    1.294714   -0.188241    0.000367   -0.000001   -0.000003
10
* Frequency(24) 3055.9018
C    -1.279345   -0.678521    0.042162    0.048748    0.054952   -0.003053
C    -0.000470    0.100295   -0.014951   -0.006340    0.000023   -0.000166
H    -2.222662    0.059472   -0.059971   -0.480425    0.398314   -0.053642
H    -1.366290   -1.322412    1.115337   -0.049376   -0.438949    0.765466
H    -1.318741   -1.529948   -0.883895   -0.016164   -0.599445   -0.676487
C     1.286897   -0.695874    0.159609    0.048209   -0.053941    0.014110
H     1.300438   -1.096810    1.013907   -0.012329    0.380755   -0.830402
H     2.061434   -0.084273    0.059452   -0.486474   -0.391519    0.065184
H     1.332404   -1.393995   -0.483165   -0.040805    0.638556    0.600160
O     0.008129    1.294714   -0.188241    0.000367   -0.000001   -0.000003
10
* Frequency(24) 3055.9018
C    -1.284657   -0.684510    0.042495    0.048748    0.054952   -0.003053
C     0.000221    0.100292   -0.014933   -0.006340    0.000023   -0.000166
H    -2.170308    0.016067   -0.054126   -0.480425    0.398314   -0.053642
H    -1.360910   -1.274579    1.031921   -0.049376   -0.438949    0.765466
H    -1.316979   -1.464624   -0.810175   -0.016164   -0.599445   -0.676487
C     1.281643   -0.689996    0.158072    0.048209   -0.053941    0.014110
H     1.301782   -1.138303    1.104399   -0.012329    0.380755   -0.830402
H     2.114447   -0.041608    0.052349   -0.486474   -0.391519    0.065184
H     1.336851   -1.463581   -0.548567   -0.040805    0.638556    0.600160
O     0.008089    1.294714   -0.188240    0.000367   -0.000001   -0.000003
10
* Frequency(24) 3055.9018
C    -1.290273   -0.690841    0.042847    0.048748    0.054952   -0.003053
C     0.000951    0.100290   -0.014913   -0.006340    0.000023   -0.000166
H    -2.114955   -0.029826   -0.047945   -0.480425    0.398314   -0.053642
H    -1.355221   -1.224005    0.943727   -0.049376   -0.438949    0.765466
H    -1.315117   -1.395558   -0.732233   -0.016164   -0.599445   -0.676487
C     1.276089   -0.683781    0.156446    0.048209   -0.053941    0.014110
H     1.303202   -1.182172    1.200075   -0.012329    0.380755   -0.830402
H     2.170496    0.003502    0.044838   -0.486474   -0.391519    0.065184
H     1.341552   -1.537153   -0.617715   -0.040805    0.638556    0.600160
O     0.008047    1.294715   -0.188240    0.000367   -0.000001   -0.000003
10
* Frequency(24) 3055.9018
C    -1.295585   -0.696829    0.043179    0.048748    0.054952   -0.003053
C     0.001642    0.100287   -0.014895   -0.006340    0.000023   -0.000166
H    -2.062602   -0.073231   -0.042100   -0.480425    0.398314   -0.053642
H    -1.349840   -1.176171    0.860312   -0.049376   -0.438949    0.765466
H    -1.313355   -1.330235   -0.658514   -0.016164   -0.599445   -0.676487
C     1.270835   -0.677903    0.154909    0.048209   -0.053941    0.014110
H     1.304546   -1.223664    1.290567   -0.012329    0.380755   -0.830402
H     2.223509    0.046167    0.037735   -0.486474   -0.391519    0.065184
H     1.345999   -1.606738   -0.683116   -0.040805    0.638556    0.600160
O     0.008007    1.294715   -0.188240    0.000367   -0.000001   -0.000003
10
* Frequency(24) 3055.9018
C    -1.300018   -0.701826    0.043457    0.048748    0.054952   -0.003053
C     0.002219    0.100285   -0.014880   -0.006340    0.000023   -0.000166
H    -2.018921   -0.109447   -0.037222   -0.480425    0.398314   -0.053642
H    -1.345351   -1.136261    0.790714   -0.049376   -0.438949    0.765466
H    -1.311886   -1.275732   -0.597006   -0.016164   -0.599445   -0.676487
C     1.266452   -0.672998    0.153626    0.048209   -0.053941    0.014110
H     1.305666   -1.258283    1.366069   -0.012329    0.380755   -0.830402
H     2.267740    0.081765    0.031809   -0.486474   -0.391519    0.065184
H     1.349709   -1.664797   -0.737684   -0.040805    0.638556    0.600160
O     0.007974    1.294715   -0.188240    0.000367   -0.000001   -0.000003
10
* Frequency(24) 3055.9018
C    -1.303090   -0.705289    0.043649    0.048748    0.054952   -0.003053
C     0.002618    0.100284   -0.014870   -0.006340    0.000023   -0.000166
H    -1.988646   -0.134548   -0.033842   -0.480425    0.398314   -0.053642
H    -1.342239   -1.108600    0.742477   -0.049376   -0.438949    0.765466
H    -1.310867   -1.237957   -0.554376   -0.016164   -0.599445   -0.676487
C     1.263414   -0.669599    0.152737    0.048209   -0.053941    0.014110
H     1.306443   -1.282277    1.418398   -0.012329    0.380755   -0.830402
H     2.298397    0.106437    0.027701   -0.486474   -0.391519    0.065184
H     1.352280   -1.705037   -0.775505   -0.040805    0.638556    0.600160
O     0.007951    1.294715   -0.188239    0.000367   -0.000001   -0.000003
10
* Frequency(24) 3055.9018
C    -1.304468   -0.706843    0.043735    0.048748    0.054952   -0.003053
C     0.002797    0.100283   -0.014865   -0.006340    0.000023   -0.000166
H    -1.975057   -0.145813   -0.032325   -0.480425    0.398314   -0.053642
H    -1.340842   -1.096184    0.720826   -0.049376   -0.438949    0.765466
H    -1.310410   -1.221002   -0.535242   -0.016164   -0.599445   -0.676487
C     1.262050   -0.668073    0.152337    0.048209   -0.053941    0.014110
H     1.306792   -1.293047    1.441885   -0.012329    0.380755   -0.830402
H     2.312156    0.117511    0.025857   -0.486474   -0.391519    0.065184
H     1.353435   -1.723098   -0.792479   -0.040805    0.638556    0.600160
O     0.007941    1.294715   -0.188239    0.000367   -0.000001   -0.000003
10
* Frequency(24) 3055.9018
C    -1.304005   -0.706320    0.043706    0.048748    0.054952   -0.003053
C     0.002737    0.100283   -0.014866   -0.006340    0.000023   -0.000166
H    -1.979628   -0.142024   -0.032835   -0.480425    0.398314   -0.053642
H    -1.341312   -1.100361    0.728109   -0.049376   -0.438949    0.765466
H    -1.310564   -1.226705   -0.541679   -0.016164   -0.599445   -0.676487
C     1.262509   -0.668586    0.152472    0.048209   -0.053941    0.014110
H     1.306675   -1.289424    1.433984   -0.012329    0.380755   -0.830402
H     2.307527    0.113786    0.026477   -0.486474   -0.391519    0.065184
H     1.353046   -1.717022   -0.786769   -0.040805    0.638556    0.600160
O     0.007944    1.294715   -0.188239    0.000367   -0.000001   -0.000003
10
* Frequency(24) 3055.9018
C    -1.301748   -0.703777    0.043565    0.048748    0.054952   -0.003053
C     0.002444    0.100284   -0.014874   -0.006340    0.000023   -0.000166
H    -2.001863   -0.123589   -0.035318   -0.480425    0.398314   -0.053642
H    -1.343597   -1.120676    0.763536   -0.049376   -0.438949    0.765466
H    -1.311312   -1.254449   -0.572988   -0.016164   -0.599445   -0.676487
C     1.264740   -0.671083    0.153125    0.048209   -0.053941    0.014110
H     1.306104   -1.271802    1.395552   -0.012329    0.380755   -0.830402
H     2.285013    0.095665    0.029494   -0.486474   -0.391519    0.065184
H     1.351158   -1.687469   -0.758993   -0.040805    0.638556    0.600160
O     0.007961    1.294715   -0.188239    0.000367   -0.000001   -0.000003
10
* Frequency(24) 3055.9018
C    -1.297944   -0.699489    0.043327    0.048748    0.054952   -0.003053
C     0.001949    0.100286   -0.014887   -0.006340    0.000023   -0.000166
H    -2.039353   -0.092507   -0.039504   -0.480425    0.398314   -0.053642
H    -1.347450   -1.154929    0.823269   -0.049376   -0.438949    0.765466
H    -1.312573   -1.301226   -0.625777   -0.016164   -0.599445   -0.676487
C     1.268502   -0.675292    0.154226    0.048209   -0.053941    0.014110
H     1.305142   -1.242090    1.330752   -0.012329    0.380755   -0.830402
H     2.247051    0.065114    0.034581   -0.486474   -0.391519    0.065184
H     1.347974   -1.637640   -0.712160   -0.040805    0.638556    0.600160
O     0.007990    1.294715   -0.188240    0.000367   -0.000001   -0.000003
10
* Frequency(24) 3055.9018
C    -1.293005   -0.693920    0.043018    0.048748    0.054952   -0.003053
C     0.001307    0.100288   -0.014904   -0.006340    0.000023   -0.000166
H    -2.088034   -0.052146   -0.044939   -0.480425    0.398314   -0.053642
H    -1.352454   -1.199407    0.900833   -0.049376   -0.438949    0.765466
H    -1.314211   -1.361967   -0.694325   -0.016164   -0.599445   -0.676487
C     1.273387   -0.680758    0.155656    0.048209   -0.053941    0.014110
H     1.303893   -1.203508    1.246608   -0.012329    0.380755   -0.830402
H     2.197757    0.025441    0.041186   -0.486474   -0.391519    0.065184
H     1.343839   -1.572935   -0.651346   -0.040805    0.638556    0.600160
O     0.008027    1.294715   -0.188240    0.000367   -0.000001   -0.000003
10
* Frequency(24) 3055.9018
C    -1.287465   -0.687675    0.042671    0.048748    0.054952   -0.003053
C     0.000586    0.100291   -0.014923   -0.006340    0.000023   -0.000166
H    -2.142632   -0.006880   -0.051035   -0.480425    0.398314   -0.053642
H    -1.358065   -1.249292    0.987824   -0.049376   -0.438949    0.765466
H    -1.316048   -1.430091   -0.771204   -0.016164   -0.599445   -0.676487
C     1.278866   -0.686888    0.157259    0.048209   -0.053941    0.014110
H     1.302492   -1.160237    1.152237   -0.012329    0.380755   -0.830402
H     2.142472   -0.019053    0.048594   -0.486474   -0.391519    0.065184
H     1.339202   -1.500367   -0.583141   -0.040805    0.638556    0.600160
O     0.008068    1.294714   -0.188240    0.000367   -0.000001   -0.000003
