10
* (null), Energy   -1000.0000000
C    -1.287465   -0.687675    0.042671    0.049747   -0.022468    0.061164
C     0.000586    0.100291   -0.014923   -0.001339    0.015536   -0.002037
H    -2.142632   -0.006880   -0.051035   -0.253540   -0.482371   -0.640494
H    -1.358065   -1.249292    0.987824    0.208669    0.384699    0.289791
H    -1.316048   -1.430091   -0.771204   -0.580365    0.623005   -0.508884
C     1.278866   -0.686888    0.157259   -0.049453   -0.039933   -0.051789
H     1.302492   -1.160237    1.152237    0.589280    0.751013    0.311905
H     2.142472   -0.019053    0.048594    0.255574   -0.284196    0.756312
H     1.339202   -1.500367   -0.583141   -0.206483    0.295708   -0.400988
O     0.008068    1.294714   -0.188240   -0.000043   -0.045957    0.006610
10
* Frequency(20) 1434.4606
C    -1.281811   -0.690229    0.049622    0.049747   -0.022468    0.061164
C     0.000434    0.102056   -0.015154   -0.001339    0.015536   -0.002037
H    -2.171445   -0.061699   -0.123824   -0.253540   -0.482371   -0.640494
H    -1.334351   -1.205573    1.020757    0.208669    0.384699    0.289791
H    -1.382003   -1.359290   -0.829036   -0.580365    0.623005   -0.508884
C     1.273246   -0.691426    0.151374   -0.049453   -0.039933   -0.051789
H     1.369460   -1.074889    1.187684    0.589280    0.751013    0.311905
H     2.171516   -0.051350    0.134544    0.255574   -0.284196    0.756312
H     1.315736   -1.466761   -0.628711   -0.206483    0.295708   -0.400988
O     0.008063    1.289492   -0.187489   -0.000043   -0.045957    0.006610
10
* Frequency(20) 1434.4606
C    -1.276771   -0.692505    0.055819    0.049747   -0.022468    0.061164
C     0.000298    0.103631   -0.015361   -0.001339    0.015536   -0.002037
H    -2.197136   -0.110577   -0.188725   -0.253540   -0.482371   -0.640494
H    -1.313207   -1.166591    1.050122    0.208669    0.384699    0.289791
H    -1.440812   -1.296161   -0.880601   -0.580365    0.623005   -0.508884
C     1.268235   -0.695473    0.146126   -0.049453   -0.039933   -0.051789
H     1.429172   -0.998789    1.219289    0.589280    0.751013    0.311905
H     2.197413   -0.080148    0.211181    0.255574   -0.284196    0.756312
H     1.294813   -1.436797   -0.669343   -0.206483    0.295708   -0.400988
O     0.008059    1.284835   -0.186819   -0.000043   -0.045957    0.006610
10
* Frequency(20) 1434.4606
C    -1.272889   -0.694259    0.060592    0.049747   -0.022468    0.061164
C     0.000194    0.104843   -0.015520   -0.001339    0.015536   -0.002037
H    -2.216921   -0.148218   -0.238706   -0.253540   -0.482371   -0.640494
H    -1.296923   -1.136572    1.072735    0.208669    0.384699    0.289791
H    -1.486100   -1.247546   -0.920312   -0.580365    0.623005   -0.508884
C     1.264376   -0.698589    0.142085   -0.049453   -0.039933   -0.051789
H     1.475156   -0.940184    1.243628    0.589280    0.751013    0.311905
H     2.217357   -0.102325    0.270199    0.255574   -0.284196    0.756312
H     1.278701   -1.413722   -0.700634   -0.206483    0.295708   -0.400988
O     0.008056    1.281249   -0.186303   -0.000043   -0.045957    0.006610
10
* Frequency(20) 1434.4606
C    -1.270586   -0.695298    0.063423    0.049747   -0.022468    0.061164
C     0.000132    0.105562   -0.015614   -0.001339    0.015536   -0.002037
H    -2.228655   -0.170543   -0.268349   -0.253540   -0.482371   -0.640494
H    -1.287266   -1.118767    1.086147    0.208669    0.384699    0.289791
H    -1.512960   -1.218712   -0.943864   -0.580365    0.623005   -0.508884
C     1.262087   -0.700437    0.139688   -0.049453   -0.039933   -0.051789
H     1.502429   -0.905426    1.258063    0.589280    0.751013    0.311905
H     2.229185   -0.115478    0.305203    0.255574   -0.284196    0.756312
H     1.269144   -1.400036   -0.719192   -0.206483    0.295708   -0.400988
O     0.008054    1.279122   -0.185997   -0.000043   -0.045957    0.006610
10
* Frequency(20) 1434.4606
C    -1.270113   -0.695512    0.064005    0.049747   -0.022468    0.061164
C     0.000119    0.105710   -0.015634   -0.001339    0.015536   -0.002037
H    -2.231068   -0.175133   -0.274443   -0.253540   -0.482371   -0.640494
H    -1.285280   -1.115107    1.088905    0.208669    0.384699    0.289791
H    -1.518482   -1.212784   -0.948705   -0.580365    0.623005   -0.508884
C     1.261616   -0.700817    0.139195   -0.049453   -0.039933   -0.051789
H     1.508035   -0.898280    1.261031    0.589280    0.751013    0.311905
H     2.231617   -0.118182    0.312399    0.255574   -0.284196    0.756312
H     1.267180   -1.397223   -0.723007   -0.206483    0.295708   -0.400988
O     0.008053    1.278685   -0.185935   -0.000043   -0.045957    0.006610
10
* Frequency(20) 1434.4606
C    -1.271520   -0.694877    0.062275    0.049747   -0.022468    0.061164
C     0.000157    0.105270   -0.015576   -0.001339    0.015536   -0.002037
H    -2.223897   -0.161489   -0.256327   -0.253540   -0.482371   -0.640494
H    -1.291182   -1.125988    1.080708    0.208669    0.384699    0.289791
H    -1.502067   -1.230405   -0.934312   -0.580365    0.623005   -0.508884
C     1.263015   -0.699688    0.140660   -0.049453   -0.039933   -0.051789
H     1.491368   -0.919522    1.252209    0.589280    0.751013    0.311905
H     2.224388   -0.110144    0.291007    0.255574   -0.284196    0.756312
H     1.273020   -1.405586   -0.711666   -0.206483    0.295708   -0.400988
O     0.008055    1.279984   -0.186122   -0.000043   -0.045957    0.006610
10
* Frequency(20) 1434.4606
C    -1.274655   -0.693461    0.058421    0.049747   -0.022468    0.061164
C     0.000241    0.104291   -0.015448   -0.001339    0.015536   -0.002037
H    -2.207919   -0.131092   -0.215965   -0.253540   -0.482371   -0.640494
H    -1.304332   -1.150230    1.062446    0.208669    0.384699    0.289791
H    -1.465494   -1.269665   -0.902244   -0.580365    0.623005   -0.508884
C     1.266132   -0.697171    0.143923   -0.049453   -0.039933   -0.051789
H     1.454233   -0.966849    1.232554    0.589280    0.751013    0.311905
H     2.208283   -0.092234    0.243346    0.255574   -0.284196    0.756312
H     1.286032   -1.424221   -0.686397   -0.206483    0.295708   -0.400988
O     0.008057    1.282880   -0.186538   -0.000043   -0.045957    0.006610
10
* Frequency(20) 1434.4606
C    -1.279178   -0.691418    0.052859    0.049747   -0.022468    0.061164
C     0.000363    0.102879   -0.015262   -0.001339    0.015536   -0.002037
H    -2.184867   -0.087234   -0.157730   -0.253540   -0.482371   -0.640494
H    -1.323305   -1.185208    1.036098    0.208669    0.384699    0.289791
H    -1.412726   -1.326310   -0.855975   -0.580365    0.623005   -0.508884
C     1.270628   -0.693540    0.148632   -0.049453   -0.039933   -0.051789
H     1.400655   -1.035132    1.204195    0.589280    0.751013    0.311905
H     2.185046   -0.066395    0.174581    0.255574   -0.284196    0.756312
H     1.304805   -1.451107   -0.649938   -0.206483    0.295708   -0.400988
O     0.008061    1.287059   -0.187139   -0.000043   -0.045957    0.006610
10
* Frequency(20) 1434.4606
C    -1.284599   -0.688970    0.046194    0.049747   -0.022468    0.061164
C     0.000509    0.101186   -0.015040   -0.001339    0.015536   -0.002037
H    -2.157238   -0.034668   -0.087933   -0.253540   -0.482371   -0.640494
H    -1.346044   -1.227130    1.004518    0.208669    0.384699    0.289791
H    -1.349482   -1.394201   -0.800520   -0.580365    0.623005   -0.508884
C     1.276017   -0.689189    0.154276   -0.049453   -0.039933   -0.051789
H     1.336439   -1.116973    1.170205    0.589280    0.751013    0.311905
H     2.157195   -0.035425    0.092163    0.255574   -0.284196    0.756312
H     1.327307   -1.483332   -0.606241   -0.206483    0.295708   -0.400988
O     0.008066    1.292067   -0.187859   -0.000043   -0.045957    0.006610
10
* Frequency(20) 1434.4606
C    -1.290331   -0.686381    0.039147    0.049747   -0.022468    0.061164
C     0.000663    0.099396   -0.014806   -0.001339    0.015536   -0.002037
H    -2.128026    0.020909   -0.014138   -0.253540   -0.482371   -0.640494
H    -1.370086   -1.271453    0.971130    0.208669    0.384699    0.289791
H    -1.282614   -1.465981   -0.741888   -0.580365    0.623005   -0.508884
C     1.281715   -0.684588    0.160242   -0.049453   -0.039933   -0.051789
H     1.268544   -1.203502    1.134269    0.589280    0.751013    0.311905
H     2.127748   -0.002681    0.005024    0.255574   -0.284196    0.756312
H     1.351097   -1.517402   -0.560041   -0.206483    0.295708   -0.400988
O     0.008071    1.297362   -0.188621   -0.000043   -0.045957    0.006610
10
* Frequency(20) 1434.4606
C    -1.295752   -0.683933    0.032482    0.049747   -0.022468    0.061164
C     0.000809    0.097703   -0.014584   -0.001339    0.015536   -0.002037
H    -2.100397    0.073475    0.055659   -0.253540   -0.482371   -0.640494
H    -1.392825   -1.313375    0.939550    0.208669    0.384699    0.289791
H    -1.219370   -1.533872   -0.686433   -0.580365    0.623005   -0.508884
C     1.287104   -0.680236    0.165886   -0.049453   -0.039933   -0.051789
H     1.204329   -1.285342    1.100280    0.589280    0.751013    0.311905
H     2.099898    0.028289   -0.077394    0.255574   -0.284196    0.756312
H     1.373598   -1.549626   -0.516344   -0.206483    0.295708   -0.400988
O     0.008076    1.302370   -0.189341   -0.000043   -0.045957    0.006610
10
* Frequency(20) 1434.4606
C    -1.300275   -0.681890    0.026921    0.049747   -0.022468    0.061164
C     0.000931    0.096290   -0.014398   -0.001339    0.015536   -0.002037
H    -2.077344    0.117333    0.113894   -0.253540   -0.482371   -0.640494
H    -1.411798   -1.348353    0.913202    0.208669    0.384699    0.289791
H    -1.166602   -1.590517   -0.640165   -0.580365    0.623005   -0.508884
C     1.291600   -0.676605    0.170595   -0.049453   -0.039933   -0.051789
H     1.150750   -1.353626    1.071921    0.589280    0.751013    0.311905
H     2.076660    0.054129   -0.146159    0.255574   -0.284196    0.756312
H     1.392372   -1.576513   -0.479885   -0.206483    0.295708   -0.400988
O     0.008080    1.306548   -0.189943   -0.000043   -0.045957    0.006610
10
* Frequency(20) 1434.4606
C    -1.303410   -0.680474    0.023066    0.049747   -0.022468    0.061164
C     0.001015    0.095311   -0.014270   -0.001339    0.015536   -0.002037
H    -2.061367    0.147730    0.154256   -0.253540   -0.482371   -0.640494
H    -1.424948   -1.372596    0.894940    0.208669    0.384699    0.289791
H    -1.130029   -1.629777   -0.608096   -0.580365    0.623005   -0.508884
C     1.294716   -0.674089    0.173858   -0.049453   -0.039933   -0.051789
H     1.113615   -1.400953    1.052265    0.589280    0.751013    0.311905
H     2.060555    0.072038   -0.193820    0.255574   -0.284196    0.756312
H     1.405384   -1.595147   -0.454616   -0.206483    0.295708   -0.400988
O     0.008082    1.309444   -0.190359   -0.000043   -0.045957    0.006610
10
* Frequency(20) 1434.4606
C    -1.304817   -0.679838    0.021336    0.049747   -0.022468    0.061164
C     0.001053    0.094872   -0.014212   -0.001339    0.015536   -0.002037
H    -2.054196    0.161374    0.172372   -0.253540   -0.482371   -0.640494
H    -1.430850   -1.383476    0.886744    0.208669    0.384699    0.289791
H    -1.113614   -1.647398   -0.593703   -0.580365    0.623005   -0.508884
C     1.296115   -0.672959    0.175323   -0.049453   -0.039933   -0.051789
H     1.096948   -1.422194    1.043443    0.589280    0.751013    0.311905
H     2.053326    0.080076   -0.215211    0.255574   -0.284196    0.756312
H     1.411224   -1.603511   -0.443275   -0.206483    0.295708   -0.400988
O     0.008083    1.310744   -0.190546   -0.000043   -0.045957    0.006610
10
* Frequency(20) 1434.4606
C    -1.304344   -0.680052    0.021918    0.049747   -0.022468    0.061164
C     0.001040    0.095020   -0.014232   -0.001339    0.015536   -0.002037
H    -2.056608    0.156784    0.166278   -0.253540   -0.482371   -0.640494
H    -1.428864   -1.379816    0.889501    0.208669    0.384699    0.289791
H    -1.119136   -1.641471   -0.598545   -0.580365    0.623005   -0.508884
C     1.295645   -0.673339    0.174830   -0.049453   -0.039933   -0.051789
H     1.102555   -1.415049    1.046411    0.589280    0.751013    0.311905
H     2.055758    0.077372   -0.208016    0.255574   -0.284196    0.756312
H     1.409259   -1.600697   -0.447090   -0.206483    0.295708   -0.400988
O     0.008083    1.310307   -0.190483   -0.000043   -0.045957    0.006610
10
* Frequency(20) 1434.4606
C    -1.302041   -0.681092    0.024749    0.049747   -0.022468    0.061164
C     0.000978    0.095739   -0.014326   -0.001339    0.015536   -0.002037
H    -2.068342    0.134459    0.136635   -0.253540   -0.482371   -0.640494
H    -1.419207   -1.362012    0.902913    0.208669    0.384699    0.289791
H    -1.145996   -1.612637   -0.622097   -0.580365    0.623005   -0.508884
C     1.293356   -0.675187    0.172433   -0.049453   -0.039933   -0.051789
H     1.129828   -1.380290    1.060847    0.589280    0.751013    0.311905
H     2.067586    0.064219   -0.173012    0.255574   -0.284196    0.756312
H     1.399703   -1.587012   -0.465648   -0.206483    0.295708   -0.400988
O     0.008081    1.308180   -0.190177   -0.000043   -0.045957    0.006610
10
* Frequency(20) 1434.4606
C    -1.298159   -0.682845    0.029522    0.049747   -0.022468    0.061164
C     0.000874    0.096951   -0.014485   -0.001339    0.015536   -0.002037
H    -2.088127    0.096818    0.086654   -0.253540   -0.482371   -0.640494
H    -1.402924   -1.331992    0.925526    0.208669    0.384699    0.289791
H    -1.191284   -1.564022   -0.661807   -0.580365    0.623005   -0.508884
C     1.289497   -0.678304    0.168392   -0.049453   -0.039933   -0.051789
H     1.175812   -1.321686    1.085186    0.589280    0.751013    0.311905
H     2.087530    0.042042   -0.113994    0.255574   -0.284196    0.756312
H     1.383590   -1.563936   -0.496939   -0.206483    0.295708   -0.400988
O     0.008078    1.304594   -0.189661   -0.000043   -0.045957    0.006610
10
* Frequency(20) 1434.4606
C    -1.293119   -0.685122    0.035720    0.049747   -0.022468    0.061164
C     0.000738    0.098525   -0.014691   -0.001339    0.015536   -0.002037
H    -2.113818    0.047939    0.021753   -0.253540   -0.482371   -0.640494
H    -1.381779   -1.293011    0.954891    0.208669    0.384699    0.289791
H    -1.250092   -1.500893   -0.713372   -0.580365    0.623005   -0.508884
C     1.284486   -0.682350    0.163145   -0.049453   -0.039933   -0.051789
H     1.235523   -1.245586    1.116791    0.589280    0.751013    0.311905
H     2.113427    0.013244   -0.037357    0.255574   -0.284196    0.756312
H     1.362667   -1.533972   -0.537571   -0.206483    0.295708   -0.400988
O     0.008073    1.299937   -0.188992   -0.000043   -0.045957    0.006610
10
* Frequency(20) 1434.4606
C    -1.287465   -0.687675    0.042671    0.049747   -0.022468    0.061164
C     0.000586    0.100291   -0.014923   -0.001339    0.015536   -0.002037
H    -2.142632   -0.006880   -0.051035   -0.253540   -0.482371   -0.640494
H    -1.358065   -1.249292    0.987824    0.208669    0.384699    0.289791
H    -1.316048   -1.430091   -0.771204   -0.580365    0.623005   -0.508884
C     1.278866   -0.686888    0.157259   -0.049453   -0.039933   -0.051789
H     1.302492   -1.160237    1.152237    0.589280    0.751013    0.311905
H     2.142472   -0.019053    0.048594    0.255574   -0.284196    0.756312
H     1.339202   -1.500367   -0.583141   -0.206483    0.295708   -0.400988
O     0.008068    1.294714   -0.188240   -0.000043   -0.045957    0.006610
