10
* (null), Energy   -1000.0000000
C    -1.287465   -0.687675    0.042671    0.124268   -0.237406    0.038679
C     0.000586    0.100291   -0.014923    0.000525    0.091362   -0.012564
H    -2.142632   -0.006880   -0.051035    0.790044    0.602111   -0.065768
H    -1.358065   -1.249292    0.987824   -0.686584    0.006558    0.118937
H    -1.316048   -1.430091   -0.771204   -0.629818    0.016663   -0.162945
C     1.278866   -0.686888    0.157259   -0.127223   -0.237210    0.029351
H     1.302492   -1.160237    1.152237    0.623685    0.061598    0.150847
H     2.142472   -0.019053    0.048594   -0.782321    0.606029   -0.104710
H     1.339202   -1.500367   -0.583141    0.692715   -0.042040   -0.112999
O     0.008068    1.294714   -0.188240    0.001338    0.208909   -0.030512
10
* Frequency(14) 1068.6247
C    -1.273343   -0.714655    0.047066    0.124268   -0.237406    0.038679
C     0.000646    0.110674   -0.016351    0.000525    0.091362   -0.012564
H    -2.052847    0.061547   -0.058510    0.790044    0.602111   -0.065768
H    -1.436092   -1.248546    1.001341   -0.686584    0.006558    0.118937
H    -1.387623   -1.428198   -0.789722   -0.629818    0.016663   -0.162945
C     1.264408   -0.713846    0.160595   -0.127223   -0.237210    0.029351
H     1.373370   -1.153237    1.169380    0.623685    0.061598    0.150847
H     2.053565    0.049819    0.036694   -0.782321    0.606029   -0.104710
H     1.417925   -1.505144   -0.595983    0.692715   -0.042040   -0.112999
O     0.008220    1.318456   -0.191708    0.001338    0.208909   -0.030512
10
* Frequency(14) 1068.6247
C    -1.260751   -0.738712    0.050986    0.124268   -0.237406    0.038679
C     0.000699    0.119931   -0.017624    0.000525    0.091362   -0.012564
H    -1.972792    0.122559   -0.065174    0.790044    0.602111   -0.065768
H    -1.505663   -1.247882    1.013393   -0.686584    0.006558    0.118937
H    -1.451443   -1.426509   -0.806233   -0.629818    0.016663   -0.162945
C     1.251516   -0.737882    0.163569   -0.127223   -0.237210    0.029351
H     1.436568   -1.146995    1.184665    0.623685    0.061598    0.150847
H     1.974293    0.111228    0.026084   -0.782321    0.606029   -0.104710
H     1.488118   -1.509404   -0.607433    0.692715   -0.042040   -0.112999
O     0.008356    1.339625   -0.194800    0.001338    0.208909   -0.030512
10
* Frequency(14) 1068.6247
C    -1.251054   -0.757237    0.054004    0.124268   -0.237406    0.038679
C     0.000740    0.127061   -0.018604    0.000525    0.091362   -0.012564
H    -1.911142    0.169544   -0.070306    0.790044    0.602111   -0.065768
H    -1.559240   -1.247370    1.022674   -0.686584    0.006558    0.118937
H    -1.500590   -1.425209   -0.818948   -0.629818    0.016663   -0.162945
C     1.241589   -0.756393    0.165859   -0.127223   -0.237210    0.029351
H     1.485237   -1.142189    1.196436    0.623685    0.061598    0.150847
H     1.913245    0.158519    0.017913   -0.782321    0.606029   -0.104710
H     1.542173   -1.512685   -0.616251    0.692715   -0.042040   -0.112999
O     0.008460    1.355927   -0.197180    0.001338    0.208909   -0.030512
10
* Frequency(14) 1068.6247
C    -1.245302   -0.768225    0.055794    0.124268   -0.237406    0.038679
C     0.000764    0.131289   -0.019186    0.000525    0.091362   -0.012564
H    -1.874578    0.197411   -0.073350    0.790044    0.602111   -0.065768
H    -1.591016   -1.247066    1.028178   -0.686584    0.006558    0.118937
H    -1.529739   -1.424438   -0.826490   -0.629818    0.016663   -0.162945
C     1.235700   -0.767371    0.167218   -0.127223   -0.237210    0.029351
H     1.514102   -1.139338    1.203418    0.623685    0.061598    0.150847
H     1.877038    0.186567    0.013066   -0.782321    0.606029   -0.104710
H     1.574233   -1.514630   -0.621480    0.692715   -0.042040   -0.112999
O     0.008522    1.365595   -0.198593    0.001338    0.208909   -0.030512
10
* Frequency(14) 1068.6247
C    -1.244120   -0.770484    0.056162    0.124268   -0.237406    0.038679
C     0.000769    0.132158   -0.019305    0.000525    0.091362   -0.012564
H    -1.867061    0.203140   -0.073976    0.790044    0.602111   -0.065768
H    -1.597549   -1.247004    1.029310   -0.686584    0.006558    0.118937
H    -1.535731   -1.424279   -0.828040   -0.629818    0.016663   -0.162945
C     1.234490   -0.769628    0.167497   -0.127223   -0.237210    0.029351
H     1.520036   -1.138752    1.204853    0.623685    0.061598    0.150847
H     1.869594    0.192333    0.012070   -0.782321    0.606029   -0.104710
H     1.580824   -1.515030   -0.622555    0.692715   -0.042040   -0.112999
O     0.008535    1.367583   -0.198883    0.001338    0.208909   -0.030512
10
* Frequency(14) 1068.6247
C    -1.247635   -0.763769    0.055068    0.124268   -0.237406    0.038679
C     0.000754    0.129574   -0.018950    0.000525    0.091362   -0.012564
H    -1.889406    0.186110   -0.072115    0.790044    0.602111   -0.065768
H    -1.578129   -1.247190    1.025946   -0.686584    0.006558    0.118937
H    -1.517918   -1.424750   -0.823431   -0.629818    0.016663   -0.162945
C     1.238088   -0.762919    0.166667   -0.127223   -0.237210    0.029351
H     1.502396   -1.140494    1.200587    0.623685    0.061598    0.150847
H     1.891721    0.175192    0.015032   -0.782321    0.606029   -0.104710
H     1.561231   -1.513841   -0.619359    0.692715   -0.042040   -0.112999
O     0.008497    1.361674   -0.198020    0.001338    0.208909   -0.030512
10
* Frequency(14) 1068.6247
C    -1.255466   -0.748808    0.052631    0.124268   -0.237406    0.038679
C     0.000721    0.123817   -0.018158    0.000525    0.091362   -0.012564
H    -1.939193    0.148166   -0.067971    0.790044    0.602111   -0.065768
H    -1.534863   -1.247603    1.018451   -0.686584    0.006558    0.118937
H    -1.478228   -1.425800   -0.813163   -0.629818    0.016663   -0.162945
C     1.246106   -0.747971    0.164817   -0.127223   -0.237210    0.029351
H     1.463093   -1.144376    1.191081    0.623685    0.061598    0.150847
H     1.941021    0.137002    0.021630   -0.782321    0.606029   -0.104710
H     1.517578   -1.511192   -0.612239    0.692715   -0.042040   -0.112999
O     0.008413    1.348509   -0.196097    0.001338    0.208909   -0.030512
10
* Frequency(14) 1068.6247
C    -1.266764   -0.727223    0.049114    0.124268   -0.237406    0.038679
C     0.000674    0.115510   -0.017016    0.000525    0.091362   -0.012564
H    -2.011025    0.093421   -0.061991    0.790044    0.602111   -0.065768
H    -1.472437   -1.248199    1.007637   -0.686584    0.006558    0.118937
H    -1.420964   -1.427316   -0.798348   -0.629818    0.016663   -0.162945
C     1.257673   -0.726403    0.162148   -0.127223   -0.237210    0.029351
H     1.406386   -1.149976    1.177365    0.623685    0.061598    0.150847
H     2.012151    0.081900    0.031151   -0.782321    0.606029   -0.104710
H     1.454595   -1.507370   -0.601964    0.692715   -0.042040   -0.112999
O     0.008291    1.329515   -0.193323    0.001338    0.208909   -0.030512
10
* Frequency(14) 1068.6247
C    -1.280306   -0.701352    0.044899    0.124268   -0.237406    0.038679
C     0.000616    0.105554   -0.015647    0.000525    0.091362   -0.012564
H    -2.097119    0.027807   -0.054824    0.790044    0.602111   -0.065768
H    -1.397618   -1.248914    0.994676   -0.686584    0.006558    0.118937
H    -1.352331   -1.429131   -0.780591   -0.629818    0.016663   -0.162945
C     1.271537   -0.700553    0.158950   -0.127223   -0.237210    0.029351
H     1.338421   -1.156689    1.160927    0.623685    0.061598    0.150847
H     2.097404    0.015859    0.042561   -0.782321    0.606029   -0.104710
H     1.379108   -1.502789   -0.589651    0.692715   -0.042040   -0.112999
O     0.008145    1.306749   -0.189998    0.001338    0.208909   -0.030512
10
* Frequency(14) 1068.6247
C    -1.294624   -0.673999    0.040442    0.124268   -0.237406    0.038679
C     0.000556    0.095028   -0.014199    0.000525    0.091362   -0.012564
H    -2.188145   -0.041566   -0.047247    0.790044    0.602111   -0.065768
H    -1.318512   -1.249669    0.980972   -0.686584    0.006558    0.118937
H    -1.279765   -1.431051   -0.761817   -0.629818    0.016663   -0.162945
C     1.286195   -0.673223    0.155568   -0.127223   -0.237210    0.029351
H     1.266562   -1.163786    1.143547    0.623685    0.061598    0.150847
H     2.187540   -0.053965    0.054626   -0.782321    0.606029   -0.104710
H     1.299296   -1.497945   -0.576631    0.692715   -0.042040   -0.112999
O     0.007991    1.282680   -0.186483    0.001338    0.208909   -0.030512
10
* Frequency(14) 1068.6247
C    -1.308166   -0.648128    0.036227    0.124268   -0.237406    0.038679
C     0.000499    0.085072   -0.012830    0.000525    0.091362   -0.012564
H    -2.274238   -0.107180   -0.040080    0.790044    0.602111   -0.065768
H    -1.243693   -1.250384    0.968011   -0.686584    0.006558    0.118937
H    -1.211132   -1.432867   -0.744061   -0.629818    0.016663   -0.162945
C     1.300059   -0.647373    0.152370   -0.127223   -0.237210    0.029351
H     1.198597   -1.170498    1.127109    0.623685    0.061598    0.150847
H     2.272792   -0.120006    0.066036   -0.782321    0.606029   -0.104710
H     1.223808   -1.493364   -0.564317    0.692715   -0.042040   -0.112999
O     0.007846    1.259914   -0.183158    0.001338    0.208909   -0.030512
10
* Frequency(14) 1068.6247
C    -1.319464   -0.626542    0.032711    0.124268   -0.237406    0.038679
C     0.000451    0.076765   -0.011688    0.000525    0.091362   -0.012564
H    -2.346071   -0.161925   -0.034100    0.790044    0.602111   -0.065768
H    -1.181267   -1.250980    0.957197   -0.686584    0.006558    0.118937
H    -1.153868   -1.434382   -0.729245   -0.629818    0.016663   -0.162945
C     1.311626   -0.625806    0.149701   -0.127223   -0.237210    0.029351
H     1.141891   -1.176099    1.113394    0.623685    0.061598    0.150847
H     2.343922   -0.175108    0.075557   -0.782321    0.606029   -0.104710
H     1.160825   -1.489541   -0.554043    0.692715   -0.042040   -0.112999
O     0.007724    1.240920   -0.180383    0.001338    0.208909   -0.030512
10
* Frequency(14) 1068.6247
C    -1.327295   -0.611582    0.030273    0.124268   -0.237406    0.038679
C     0.000418    0.071007   -0.010896    0.000525    0.091362   -0.012564
H    -2.395857   -0.199869   -0.029956    0.790044    0.602111   -0.065768
H    -1.138001   -1.251394    0.949702   -0.686584    0.006558    0.118937
H    -1.114178   -1.435432   -0.718977   -0.629818    0.016663   -0.162945
C     1.319643   -0.610857    0.147851   -0.127223   -0.237210    0.029351
H     1.102588   -1.179981    1.103888    0.623685    0.061598    0.150847
H     2.393222   -0.213298    0.082155   -0.782321    0.606029   -0.104710
H     1.117172   -1.486892   -0.546923    0.692715   -0.042040   -0.112999
O     0.007640    1.227755   -0.178461    0.001338    0.208909   -0.030512
10
* Frequency(14) 1068.6247
C    -1.330810   -0.604867    0.029179    0.124268   -0.237406    0.038679
C     0.000403    0.068423   -0.010541    0.000525    0.091362   -0.012564
H    -2.418203   -0.216899   -0.028095    0.790044    0.602111   -0.065768
H    -1.118581   -1.251579    0.946338   -0.686584    0.006558    0.118937
H    -1.096365   -1.435904   -0.714368   -0.629818    0.016663   -0.162945
C     1.323242   -0.604148    0.147021   -0.127223   -0.237210    0.029351
H     1.084948   -1.181723    1.099621    0.623685    0.061598    0.150847
H     2.415349   -0.230439    0.085117   -0.782321    0.606029   -0.104710
H     1.097580   -1.485703   -0.543726    0.692715   -0.042040   -0.112999
O     0.007602    1.221846   -0.177598    0.001338    0.208909   -0.030512
10
* Frequency(14) 1068.6247
C    -1.329628   -0.607126    0.029547    0.124268   -0.237406    0.038679
C     0.000408    0.069293   -0.010660    0.000525    0.091362   -0.012564
H    -2.410686   -0.211170   -0.028721    0.790044    0.602111   -0.065768
H    -1.125114   -1.251517    0.947470   -0.686584    0.006558    0.118937
H    -1.102357   -1.435745   -0.715919   -0.629818    0.016663   -0.162945
C     1.322031   -0.606405    0.147301   -0.127223   -0.237210    0.029351
H     1.090882   -1.181137    1.101056    0.623685    0.061598    0.150847
H     2.407905   -0.224673    0.084121   -0.782321    0.606029   -0.104710
H     1.104170   -1.486103   -0.544802    0.692715   -0.042040   -0.112999
O     0.007615    1.223834   -0.177888    0.001338    0.208909   -0.030512
10
* Frequency(14) 1068.6247
C    -1.323876   -0.618113    0.031337    0.124268   -0.237406    0.038679
C     0.000432    0.073521   -0.011242    0.000525    0.091362   -0.012564
H    -2.374121   -0.183303   -0.031765    0.790044    0.602111   -0.065768
H    -1.156890   -1.251213    0.952974   -0.686584    0.006558    0.118937
H    -1.131506   -1.434974   -0.723460   -0.629818    0.016663   -0.162945
C     1.316143   -0.617384    0.148659   -0.127223   -0.237210    0.029351
H     1.119747   -1.178286    1.108038    0.623685    0.061598    0.150847
H     2.371698   -0.196625    0.079274   -0.782321    0.606029   -0.104710
H     1.136230   -1.488049   -0.550031    0.692715   -0.042040   -0.112999
O     0.007676    1.233502   -0.179300    0.001338    0.208909   -0.030512
10
* Frequency(14) 1068.6247
C    -1.314179   -0.636639    0.034356    0.124268   -0.237406    0.038679
C     0.000473    0.080650   -0.012222    0.000525    0.091362   -0.012564
H    -2.312471   -0.136318   -0.036897    0.790044    0.602111   -0.065768
H    -1.210467   -1.250702    0.962256   -0.686584    0.006558    0.118937
H    -1.180653   -1.433673   -0.736175   -0.629818    0.016663   -0.162945
C     1.306215   -0.635894    0.150949   -0.127223   -0.237210    0.029351
H     1.168415   -1.173479    1.119809    0.623685    0.061598    0.150847
H     2.310651   -0.149334    0.071104   -0.782321    0.606029   -0.104710
H     1.190286   -1.491329   -0.558849    0.692715   -0.042040   -0.112999
O     0.007781    1.249804   -0.181681    0.001338    0.208909   -0.030512
10
* Frequency(14) 1068.6247
C    -1.301587   -0.660695    0.038275    0.124268   -0.237406    0.038679
C     0.000526    0.089908   -0.013495    0.000525    0.091362   -0.012564
H    -2.232416   -0.075306   -0.043561    0.790044    0.602111   -0.065768
H    -1.280038   -1.250037    0.974308   -0.686584    0.006558    0.118937
H    -1.244472   -1.431985   -0.752686   -0.629818    0.016663   -0.162945
C     1.293324   -0.659930    0.153923   -0.127223   -0.237210    0.029351
H     1.231613   -1.167238    1.135094    0.623685    0.061598    0.150847
H     2.231378   -0.087925    0.060493   -0.782321    0.606029   -0.104710
H     1.260478   -1.495589   -0.570299    0.692715   -0.042040   -0.112999
O     0.007916    1.270973   -0.184773    0.001338    0.208909   -0.030512
10
* Frequency(14) 1068.6247
C    -1.287465   -0.687675    0.042671    0.124268   -0.237406    0.038679
C     0.000586    0.100291   -0.014923    0.000525    0.091362   -0.012564
H    -2.142632   -0.006880   -0.051035    0.790044    0.602111   -0.065768
H    -1.358065   -1.249292    0.987824   -0.686584    0.006558    0.118937
H    -1.316048   -1.430091   -0.771204   -0.629818    0.016663   -0.162945
C     1.278866   -0.686888    0.157259   -0.127223   -0.237210    0.029351
H     1.302492   -1.160237    1.152237    0.623685    0.061598    0.150847
H     2.142472   -0.019053    0.048594   -0.782321    0.606029   -0.104710
H     1.339202   -1.500367   -0.583141    0.692715   -0.042040   -0.112999
O     0.008068    1.294714   -0.188240    0.001338    0.208909   -0.030512
