10
* (null), Energy   -1000.0000000
C    -1.287465   -0.687675    0.042671   -0.009544    0.003146    0.065217
C     0.000586    0.100291   -0.014923    0.010513    0.009639    0.066874
H    -2.142632   -0.006880   -0.051035    0.029280   -0.093806   -1.002645
H    -1.358065   -1.249292    0.987824    0.683012   -0.202814   -0.022946
H    -1.316048   -1.430091   -0.771204   -0.648240    0.199250   -0.111211
C     1.278866   -0.686888    0.157259   -0.010157    0.016412    0.063123
H     1.302492   -1.160237    1.152237   -0.647122   -0.215317   -0.048407
H     2.142472   -0.019053    0.048594    0.027410   -0.204307   -0.984881
H     1.339202   -1.500367   -0.583141    0.687727    0.178318   -0.080405
O     0.008068    1.294714   -0.188240   -0.001424   -0.000581   -0.004764
10
* Frequency(22) 1457.6868
C    -1.288550   -0.687318    0.050082   -0.009544    0.003146    0.065217
C     0.001781    0.101386   -0.007323    0.010513    0.009639    0.066874
H    -2.139304   -0.017540   -0.164981    0.029280   -0.093806   -1.002645
H    -1.280444   -1.272340    0.985216    0.683012   -0.202814   -0.022946
H    -1.389717   -1.407448   -0.783843   -0.648240    0.199250   -0.111211
C     1.277712   -0.685023    0.164433   -0.010157    0.016412    0.063123
H     1.228950   -1.184707    1.146736   -0.647122   -0.215317   -0.048407
H     2.145587   -0.042271   -0.063333    0.027410   -0.204307   -0.984881
H     1.417358   -1.480102   -0.592279    0.687727    0.178318   -0.080405
O     0.007907    1.294648   -0.188782   -0.001424   -0.000581   -0.004764
10
* Frequency(22) 1457.6868
C    -1.289517   -0.686999    0.056691   -0.009544    0.003146    0.065217
C     0.002846    0.102363   -0.000547    0.010513    0.009639    0.066874
H    -2.136337   -0.027046   -0.266579    0.029280   -0.093806   -1.002645
H    -1.211235   -1.292891    0.982891    0.683012   -0.202814   -0.022946
H    -1.455403   -1.387258   -0.795112   -0.648240    0.199250   -0.111211
C     1.276682   -0.683360    0.170829   -0.010157    0.016412    0.063123
H     1.163377   -1.206525    1.141831   -0.647122   -0.215317   -0.048407
H     2.148364   -0.062974   -0.163131    0.027410   -0.204307   -0.984881
H     1.487045   -1.462033   -0.600426    0.687727    0.178318   -0.080405
O     0.007762    1.294589   -0.189264   -0.001424   -0.000581   -0.004764
10
* Frequency(22) 1457.6868
C    -1.290261   -0.686753    0.061780   -0.009544    0.003146    0.065217
C     0.003667    0.103115    0.004672    0.010513    0.009639    0.066874
H    -2.134052   -0.034366   -0.344819    0.029280   -0.093806   -1.002645
H    -1.157937   -1.308718    0.981101    0.683012   -0.202814   -0.022946
H    -1.505988   -1.371709   -0.803790   -0.648240    0.199250   -0.111211
C     1.275890   -0.682079    0.175755   -0.010157    0.016412    0.063123
H     1.112880   -1.223327    1.138054   -0.647122   -0.215317   -0.048407
H     2.150503   -0.078917   -0.239985    0.027410   -0.204307   -0.984881
H     1.540711   -1.448118   -0.606700    0.687727    0.178318   -0.080405
O     0.007651    1.294544   -0.189636   -0.001424   -0.000581   -0.004764
10
* Frequency(22) 1457.6868
C    -1.290703   -0.686608    0.064798   -0.009544    0.003146    0.065217
C     0.004153    0.103561    0.007767    0.010513    0.009639    0.066874
H    -2.132697   -0.038707   -0.391223    0.029280   -0.093806   -1.002645
H    -1.126326   -1.318104    0.980039    0.683012   -0.202814   -0.022946
H    -1.535989   -1.362488   -0.808937   -0.648240    0.199250   -0.111211
C     1.275420   -0.681320    0.178676   -0.010157    0.016412    0.063123
H     1.082930   -1.233292    1.135813   -0.647122   -0.215317   -0.048407
H     2.151771   -0.088372   -0.285567    0.027410   -0.204307   -0.984881
H     1.572541   -1.439865   -0.610421    0.687727    0.178318   -0.080405
O     0.007585    1.294517   -0.189857   -0.001424   -0.000581   -0.004764
10
* Frequency(22) 1457.6868
C    -1.290794   -0.686578    0.065419   -0.009544    0.003146    0.065217
C     0.004253    0.103653    0.008403    0.010513    0.009639    0.066874
H    -2.132419   -0.039600   -0.400763    0.029280   -0.093806   -1.002645
H    -1.119827   -1.320034    0.979821    0.683012   -0.202814   -0.022946
H    -1.542157   -1.360592   -0.809995   -0.648240    0.199250   -0.111211
C     1.275323   -0.681164    0.179277   -0.010157    0.016412    0.063123
H     1.076773   -1.235341    1.135353   -0.647122   -0.215317   -0.048407
H     2.152032   -0.090316   -0.294937    0.027410   -0.204307   -0.984881
H     1.579084   -1.438169   -0.611187    0.687727    0.178318   -0.080405
O     0.007572    1.294512   -0.189902   -0.001424   -0.000581   -0.004764
10
* Frequency(22) 1457.6868
C    -1.290524   -0.686667    0.063574   -0.009544    0.003146    0.065217
C     0.003956    0.103380    0.006512    0.010513    0.009639    0.066874
H    -2.133247   -0.036946   -0.372404    0.029280   -0.093806   -1.002645
H    -1.139146   -1.314298    0.980470    0.683012   -0.202814   -0.022946
H    -1.523822   -1.366228   -0.806850   -0.648240    0.199250   -0.111211
C     1.275610   -0.681628    0.177491   -0.010157    0.016412    0.063123
H     1.095076   -1.229251    1.136722   -0.647122   -0.215317   -0.048407
H     2.151257   -0.084537   -0.267081    0.027410   -0.204307   -0.984881
H     1.559632   -1.443212   -0.608912    0.687727    0.178318   -0.080405
O     0.007612    1.294528   -0.189767   -0.001424   -0.000581   -0.004764
10
* Frequency(22) 1457.6868
C    -1.289923   -0.686865    0.059464   -0.009544    0.003146    0.065217
C     0.003293    0.102773    0.002297    0.010513    0.009639    0.066874
H    -2.135092   -0.031035   -0.309220    0.029280   -0.093806   -1.002645
H    -1.182187   -1.301517    0.981915    0.683012   -0.202814   -0.022946
H    -1.482972   -1.378784   -0.799842   -0.648240    0.199250   -0.111211
C     1.276250   -0.682662    0.173513   -0.010157    0.016412    0.063123
H     1.135856   -1.215682    1.139772   -0.647122   -0.215317   -0.048407
H     2.149530   -0.071663   -0.205017    0.027410   -0.204307   -0.984881
H     1.516294   -1.454449   -0.603845    0.687727    0.178318   -0.080405
O     0.007702    1.294565   -0.189467   -0.001424   -0.000581   -0.004764
10
* Frequency(22) 1457.6868
C    -1.289055   -0.687151    0.053535   -0.009544    0.003146    0.065217
C     0.002337    0.101896   -0.003783    0.010513    0.009639    0.066874
H    -2.137754   -0.022506   -0.218058    0.029280   -0.093806   -1.002645
H    -1.244288   -1.283077    0.984002    0.683012   -0.202814   -0.022946
H    -1.424033   -1.396900   -0.789730   -0.648240    0.199250   -0.111211
C     1.277174   -0.684154    0.167774   -0.010157    0.016412    0.063123
H     1.194693   -1.196105    1.144173   -0.647122   -0.215317   -0.048407
H     2.147038   -0.053087   -0.115469    0.027410   -0.204307   -0.984881
H     1.453764   -1.470662   -0.596535    0.687727    0.178318   -0.080405
O     0.007831    1.294618   -0.189034   -0.001424   -0.000581   -0.004764
10
* Frequency(22) 1457.6868
C    -1.288015   -0.687494    0.046428   -0.009544    0.003146    0.065217
C     0.001192    0.100846   -0.011070    0.010513    0.009639    0.066874
H    -2.140945   -0.012284   -0.108796    0.029280   -0.093806   -1.002645
H    -1.318718   -1.260975    0.986502    0.683012   -0.202814   -0.022946
H    -1.353392   -1.418613   -0.777611   -0.648240    0.199250   -0.111211
C     1.278281   -0.685943    0.160895   -0.010157    0.016412    0.063123
H     1.265212   -1.172641    1.149449   -0.647122   -0.215317   -0.048407
H     2.144051   -0.030823   -0.008144    0.027410   -0.204307   -0.984881
H     1.378820   -1.490094   -0.587773    0.687727    0.178318   -0.080405
O     0.007986    1.294681   -0.188515   -0.001424   -0.000581   -0.004764
10
* Frequency(22) 1457.6868
C    -1.286915   -0.687857    0.038914   -0.009544    0.003146    0.065217
C    -0.000020    0.099736   -0.018775    0.010513    0.009639    0.066874
H    -2.144319   -0.001476    0.006725    0.029280   -0.093806   -1.002645
H    -1.397412   -1.237608    0.989146    0.683012   -0.202814   -0.022946
H    -1.278704   -1.441570   -0.764798   -0.648240    0.199250   -0.111211
C     1.279451   -0.687834    0.153623   -0.010157    0.016412    0.063123
H     1.339771   -1.147833    1.155026   -0.647122   -0.215317   -0.048407
H     2.140893   -0.007283    0.105331    0.027410   -0.204307   -0.984881
H     1.299583   -1.510639   -0.578509    0.687727    0.178318   -0.080405
O     0.008150    1.294748   -0.187966   -0.001424   -0.000581   -0.004764
10
* Frequency(22) 1457.6868
C    -1.285875   -0.688199    0.031807   -0.009544    0.003146    0.065217
C    -0.001165    0.098685   -0.026063    0.010513    0.009639    0.066874
H    -2.147509    0.008747    0.115987    0.029280   -0.093806   -1.002645
H    -1.471842   -1.215507    0.991647    0.683012   -0.202814   -0.022946
H    -1.208063   -1.463283   -0.752678   -0.648240    0.199250   -0.111211
C     1.280558   -0.689622    0.146744   -0.010157    0.016412    0.063123
H     1.410290   -1.124369    1.160301   -0.647122   -0.215317   -0.048407
H     2.137906    0.014981    0.212657    0.027410   -0.204307   -0.984881
H     1.224639   -1.530071   -0.569747    0.687727    0.178318   -0.080405
O     0.008306    1.294811   -0.187447   -0.001424   -0.000581   -0.004764
10
* Frequency(22) 1457.6868
C    -1.285007   -0.688486    0.025877   -0.009544    0.003146    0.065217
C    -0.002121    0.097809   -0.032143    0.010513    0.009639    0.066874
H    -2.150172    0.017276    0.207149    0.029280   -0.093806   -1.002645
H    -1.533943   -1.197066    0.993733    0.683012   -0.202814   -0.022946
H    -1.149124   -1.481399   -0.742567   -0.648240    0.199250   -0.111211
C     1.281481   -0.691114    0.141005   -0.010157    0.016412    0.063123
H     1.469128   -1.104793    1.164702   -0.647122   -0.215317   -0.048407
H     2.135413    0.033557    0.302204    0.027410   -0.204307   -0.984881
H     1.162110   -1.546284   -0.562436    0.687727    0.178318   -0.080405
O     0.008435    1.294864   -0.187014   -0.001424   -0.000581   -0.004764
10
* Frequency(22) 1457.6868
C    -1.284406   -0.688684    0.021767   -0.009544    0.003146    0.065217
C    -0.002784    0.097201   -0.036357    0.010513    0.009639    0.066874
H    -2.152017    0.023187    0.270333    0.029280   -0.093806   -1.002645
H    -1.576984   -1.184286    0.995179    0.683012   -0.202814   -0.022946
H    -1.108274   -1.493955   -0.735559   -0.648240    0.199250   -0.111211
C     1.282121   -0.692149    0.137027   -0.010157    0.016412    0.063123
H     1.509908   -1.091224    1.167753   -0.647122   -0.215317   -0.048407
H     2.133686    0.046432    0.364268    0.027410   -0.204307   -0.984881
H     1.118771   -1.557521   -0.557370    0.687727    0.178318   -0.080405
O     0.008525    1.294901   -0.186713   -0.001424   -0.000581   -0.004764
10
* Frequency(22) 1457.6868
C    -1.284136   -0.688773    0.019923   -0.009544    0.003146    0.065217
C    -0.003081    0.096929   -0.038249    0.010513    0.009639    0.066874
H    -2.152845    0.025840    0.298692    0.029280   -0.093806   -1.002645
H    -1.596303   -1.178549    0.995828    0.683012   -0.202814   -0.022946
H    -1.089939   -1.499591   -0.732413   -0.648240    0.199250   -0.111211
C     1.282409   -0.692613    0.135241   -0.010157    0.016412    0.063123
H     1.528211   -1.085134    1.169122   -0.647122   -0.215317   -0.048407
H     2.132911    0.052210    0.392125    0.027410   -0.204307   -0.984881
H     1.099319   -1.562565   -0.555095    0.687727    0.178318   -0.080405
O     0.008565    1.294917   -0.186579   -0.001424   -0.000581   -0.004764
10
* Frequency(22) 1457.6868
C    -1.284227   -0.688743    0.020543   -0.009544    0.003146    0.065217
C    -0.002981    0.097020   -0.037613    0.010513    0.009639    0.066874
H    -2.152566    0.024948    0.289152    0.029280   -0.093806   -1.002645
H    -1.589804   -1.180479    0.995609    0.683012   -0.202814   -0.022946
H    -1.096106   -1.497695   -0.733471   -0.648240    0.199250   -0.111211
C     1.282312   -0.692457    0.135842   -0.010157    0.016412    0.063123
H     1.522054   -1.087182    1.168661   -0.647122   -0.215317   -0.048407
H     2.133172    0.050266    0.382754    0.027410   -0.204307   -0.984881
H     1.105863   -1.560868   -0.555860    0.687727    0.178318   -0.080405
O     0.008551    1.294912   -0.186624   -0.001424   -0.000581   -0.004764
10
* Frequency(22) 1457.6868
C    -1.284668   -0.688597    0.023562   -0.009544    0.003146    0.065217
C    -0.002494    0.097467   -0.034518    0.010513    0.009639    0.066874
H    -2.151211    0.020606    0.242748    0.029280   -0.093806   -1.002645
H    -1.558193   -1.189866    0.994547    0.683012   -0.202814   -0.022946
H    -1.126108   -1.488473   -0.738618   -0.648240    0.199250   -0.111211
C     1.281842   -0.691697    0.138763   -0.010157    0.016412    0.063123
H     1.492104   -1.097148    1.166421   -0.647122   -0.215317   -0.048407
H     2.134440    0.040811    0.337172    0.027410   -0.204307   -0.984881
H     1.137692   -1.552615   -0.559582    0.687727    0.178318   -0.080405
O     0.008485    1.294885   -0.186844   -0.001424   -0.000581   -0.004764
10
* Frequency(22) 1457.6868
C    -1.285413   -0.688352    0.028651   -0.009544    0.003146    0.065217
C    -0.001674    0.098219   -0.029299    0.010513    0.009639    0.066874
H    -2.148926    0.013286    0.164508    0.029280   -0.093806   -1.002645
H    -1.504895   -1.205692    0.992757    0.683012   -0.202814   -0.022946
H    -1.176693   -1.472925   -0.747297   -0.648240    0.199250   -0.111211
C     1.281049   -0.690416    0.143689   -0.010157    0.016412    0.063123
H     1.441606   -1.113950    1.162643   -0.647122   -0.215317   -0.048407
H     2.136579    0.024868    0.260318    0.027410   -0.204307   -0.984881
H     1.191358   -1.538701   -0.565856    0.687727    0.178318   -0.080405
O     0.008374    1.294839   -0.187216   -0.001424   -0.000581   -0.004764
10
* Frequency(22) 1457.6868
C    -1.286380   -0.688033    0.035259   -0.009544    0.003146    0.065217
C    -0.000609    0.099195   -0.022523    0.010513    0.009639    0.066874
H    -2.145959    0.003781    0.062910    0.029280   -0.093806   -1.002645
H    -1.435686   -1.226243    0.990432    0.683012   -0.202814   -0.022946
H    -1.242379   -1.452735   -0.758566   -0.648240    0.199250   -0.111211
C     1.280020   -0.688753    0.150085   -0.010157    0.016412    0.063123
H     1.376034   -1.135768    1.157738   -0.647122   -0.215317   -0.048407
H     2.139357    0.004165    0.160520    0.027410   -0.204307   -0.984881
H     1.261045   -1.520632   -0.574003    0.687727    0.178318   -0.080405
O     0.008230    1.294780   -0.187699   -0.001424   -0.000581   -0.004764
10
* Frequency(22) 1457.6868
C    -1.287465   -0.687675    0.042671   -0.009544    0.003146    0.065217
C     0.000586    0.100291   -0.014923    0.010513    0.009639    0.066874
H    -2.142632   -0.006880   -0.051035    0.029280   -0.093806   -1.002645
H    -1.358065   -1.249292    0.987824    0.683012   -0.202814   -0.022946
H    -1.316048   -1.430091   -0.771204   -0.648240    0.199250   -0.111211
C     1.278866   -0.686888    0.157259   -0.010157    0.016412    0.063123
H     1.302492   -1.160237    1.152237   -0.647122   -0.215317   -0.048407
H     2.142472   -0.019053    0.048594    0.027410   -0.204307   -0.984881
H     1.339202   -1.500367   -0.583141    0.687727    0.178318   -0.080405
O     0.008068    1.294714   -0.188240   -0.001424   -0.000581   -0.004764
