10
* (null), Energy   -1000.0000000
C    -1.287465   -0.687675    0.042671    0.049636    0.054560   -0.002920
C     0.000586    0.100291   -0.014923   -0.000014   -0.001590    0.000219
H    -2.142632   -0.006880   -0.051035   -0.494700    0.404898   -0.054912
H    -1.358065   -1.249292    0.987824   -0.047193   -0.437026    0.762456
H    -1.316048   -1.430091   -0.771204   -0.013751   -0.597911   -0.674263
C     1.278866   -0.686888    0.157259   -0.048910    0.053309   -0.014116
H     1.302492   -1.160237    1.152237    0.009899   -0.378540    0.824868
H     2.142472   -0.019053    0.048594    0.498923    0.396484   -0.065607
H     1.339202   -1.500367   -0.583141    0.038456   -0.632959   -0.595156
O     0.008068    1.294714   -0.188240   -0.000007   -0.001344    0.000189
10
* Frequency(25) 3061.1317
C    -1.281824   -0.681475    0.042339    0.049636    0.054560   -0.002920
C     0.000584    0.100110   -0.014898   -0.000014   -0.001590    0.000219
H    -2.198852    0.039135   -0.057276   -0.494700    0.404898   -0.054912
H    -1.363428   -1.298957    1.074473   -0.047193   -0.437026    0.762456
H    -1.317611   -1.498041   -0.847831   -0.013751   -0.597911   -0.674263
C     1.273307   -0.680830    0.155655   -0.048910    0.053309   -0.014116
H     1.303617   -1.203256    1.245979    0.009899   -0.378540    0.824868
H     2.199172    0.026005    0.041138    0.498923    0.396484   -0.065607
H     1.343572   -1.572299   -0.650777    0.038456   -0.632959   -0.595156
O     0.008068    1.294562   -0.188219   -0.000007   -0.001344    0.000189
10
* Frequency(25) 3061.1317
C    -1.276794   -0.675946    0.042043    0.049636    0.054560   -0.002920
C     0.000583    0.099949   -0.014876   -0.000014   -0.001590    0.000219
H    -2.248980    0.080163   -0.062840   -0.494700    0.404898   -0.054912
H    -1.368210   -1.343241    1.151733   -0.047193   -0.437026    0.762456
H    -1.319004   -1.558627   -0.916154   -0.013751   -0.597911   -0.674263
C     1.268351   -0.675428    0.154225   -0.048910    0.053309   -0.014116
H     1.304620   -1.241614    1.329563    0.009899   -0.378540    0.824868
H     2.249727    0.066181    0.034490    0.498923    0.396484   -0.065607
H     1.347469   -1.636437   -0.711084    0.038456   -0.632959   -0.595156
O     0.008067    1.294426   -0.188200   -0.000007   -0.001344    0.000189
10
* Frequency(25) 3061.1317
C    -1.272921   -0.671689    0.041815    0.049636    0.054560   -0.002920
C     0.000582    0.099825   -0.014859   -0.000014   -0.001590    0.000219
H    -2.287583    0.111759   -0.067125   -0.494700    0.404898   -0.054912
H    -1.371893   -1.377344    1.211230   -0.047193   -0.437026    0.762456
H    -1.320077   -1.605284   -0.968769   -0.013751   -0.597911   -0.674263
C     1.264535   -0.671268    0.153123   -0.048910    0.053309   -0.014116
H     1.305392   -1.271153    1.393930    0.009899   -0.378540    0.824868
H     2.288660    0.097120    0.029370    0.498923    0.396484   -0.065607
H     1.350470   -1.685829   -0.757526    0.038456   -0.632959   -0.595156
O     0.008066    1.294321   -0.188185   -0.000007   -0.001344    0.000189
10
* Frequency(25) 3061.1317
C    -1.270624   -0.669164    0.041680    0.049636    0.054560   -0.002920
C     0.000581    0.099751   -0.014849   -0.000014   -0.001590    0.000219
H    -2.310479    0.130498   -0.069667   -0.494700    0.404898   -0.054912
H    -1.374077   -1.397570    1.246518   -0.047193   -0.437026    0.762456
H    -1.320714   -1.632956   -0.999975   -0.013751   -0.597911   -0.674263
C     1.262271   -0.668801    0.152470   -0.048910    0.053309   -0.014116
H     1.305850   -1.288672    1.432107    0.009899   -0.378540    0.824868
H     2.311751    0.115470    0.026334    0.498923    0.396484   -0.065607
H     1.352249   -1.715123   -0.785071    0.038456   -0.632959   -0.595156
O     0.008066    1.294258   -0.188176   -0.000007   -0.001344    0.000189
10
* Frequency(25) 3061.1317
C    -1.270152   -0.668645    0.041652    0.049636    0.054560   -0.002920
C     0.000581    0.099736   -0.014847   -0.000014   -0.001590    0.000219
H    -2.315185    0.134351   -0.070189   -0.494700    0.404898   -0.054912
H    -1.374526   -1.401728    1.253772   -0.047193   -0.437026    0.762456
H    -1.320845   -1.638645   -1.006390   -0.013751   -0.597911   -0.674263
C     1.261806   -0.668294    0.152335   -0.048910    0.053309   -0.014116
H     1.305944   -1.292274    1.439955    0.009899   -0.378540    0.824868
H     2.316498    0.119243    0.025710    0.498923    0.396484   -0.065607
H     1.352615   -1.721146   -0.790734    0.038456   -0.632959   -0.595156
O     0.008066    1.294246   -0.188174   -0.000007   -0.001344    0.000189
10
* Frequency(25) 3061.1317
C    -1.271556   -0.670188    0.041735    0.049636    0.054560   -0.002920
C     0.000581    0.099781   -0.014853   -0.000014   -0.001590    0.000219
H    -2.301193    0.122899   -0.068636   -0.494700    0.404898   -0.054912
H    -1.373191   -1.389368    1.232207   -0.047193   -0.437026    0.762456
H    -1.320456   -1.621734   -0.987320   -0.013751   -0.597911   -0.674263
C     1.263189   -0.669801    0.152735   -0.048910    0.053309   -0.014116
H     1.305664   -1.281567    1.416624    0.009899   -0.378540    0.824868
H     2.302387    0.108028    0.027565    0.498923    0.396484   -0.065607
H     1.351528   -1.703243   -0.773901    0.038456   -0.632959   -0.595156
O     0.008066    1.294284   -0.188180   -0.000007   -0.001344    0.000189
10
* Frequency(25) 3061.1317
C    -1.274683   -0.673626    0.041919    0.049636    0.054560   -0.002920
C     0.000582    0.099881   -0.014867   -0.000014   -0.001590    0.000219
H    -2.270019    0.097383   -0.065176   -0.494700    0.404898   -0.054912
H    -1.370217   -1.361827    1.184159   -0.047193   -0.437026    0.762456
H    -1.319589   -1.584055   -0.944829   -0.013751   -0.597911   -0.674263
C     1.266271   -0.673161    0.153624   -0.048910    0.053309   -0.014116
H     1.305041   -1.257713    1.364643    0.009899   -0.378540    0.824868
H     2.270946    0.083043    0.031700    0.498923    0.396484   -0.065607
H     1.349104   -1.663356   -0.736396    0.038456   -0.632959   -0.595156
O     0.008066    1.294368   -0.188192   -0.000007   -0.001344    0.000189
10
* Frequency(25) 3061.1317
C    -1.279196   -0.678587    0.042184    0.049636    0.054560   -0.002920
C     0.000584    0.100026   -0.014886   -0.000014   -0.001590    0.000219
H    -2.225040    0.060569   -0.060183   -0.494700    0.404898   -0.054912
H    -1.365926   -1.322092    1.114835   -0.047193   -0.437026    0.762456
H    -1.318339   -1.529692   -0.883524   -0.013751   -0.597911   -0.674263
C     1.270718   -0.678008    0.154908   -0.048910    0.053309   -0.014116
H     1.304141   -1.223295    1.289645    0.009899   -0.378540    0.824868
H     2.225583    0.046994    0.037665    0.498923    0.396484   -0.065607
H     1.345608   -1.605806   -0.682283    0.038456   -0.632959   -0.595156
O     0.008067    1.294491   -0.188209   -0.000007   -0.001344    0.000189
10
* Frequency(25) 3061.1317
C    -1.284606   -0.684532    0.042502    0.049636    0.054560   -0.002920
C     0.000585    0.100199   -0.014910   -0.000014   -0.001590    0.000219
H    -2.171130    0.016446   -0.054199   -0.494700    0.404898   -0.054912
H    -1.360784   -1.274468    1.031748   -0.047193   -0.437026    0.762456
H    -1.316840   -1.464536   -0.810047   -0.013751   -0.597911   -0.674263
C     1.276048   -0.683817    0.156446   -0.048910    0.053309   -0.014116
H     1.303062   -1.182044    1.199756    0.009899   -0.378540    0.824868
H     2.171214    0.003788    0.044814    0.498923    0.396484   -0.065607
H     1.341417   -1.536830   -0.617427    0.038456   -0.632959   -0.595156
O     0.008068    1.294637   -0.188229   -0.000007   -0.001344    0.000189
10
* Frequency(25) 3061.1317
C    -1.290324   -0.690818    0.042839    0.049636    0.054560   -0.002920
C     0.000587    0.100382   -0.014936   -0.000014   -0.001590    0.000219
H    -2.114133   -0.030205   -0.047872   -0.494700    0.404898   -0.054912
H    -1.355346   -1.224115    0.943900   -0.047193   -0.437026    0.762456
H    -1.315256   -1.395647   -0.732361   -0.013751   -0.597911   -0.674263
C     1.281683   -0.689959    0.158072   -0.048910    0.053309   -0.014116
H     1.301922   -1.138430    1.104718    0.009899   -0.378540    0.824868
H     2.113730   -0.041894    0.052373    0.498923    0.396484   -0.065607
H     1.336986   -1.463903   -0.548855    0.038456   -0.632959   -0.595156
O     0.008069    1.294792   -0.188251   -0.000007   -0.001344    0.000189
10
* Frequency(25) 3061.1317
C    -1.295733   -0.696764    0.043157    0.049636    0.054560   -0.002920
C     0.000588    0.100556   -0.014959   -0.000014   -0.001590    0.000219
H    -2.060224   -0.074328   -0.041888   -0.494700    0.404898   -0.054912
H    -1.350204   -1.176491    0.860813   -0.047193   -0.437026    0.762456
H    -1.313757   -1.330490   -0.658884   -0.013751   -0.597911   -0.674263
C     1.287013   -0.695768    0.159610   -0.048910    0.053309   -0.014116
H     1.300843   -1.097179    1.014829    0.009899   -0.378540    0.824868
H     2.059360   -0.085100    0.059522    0.498923    0.396484   -0.065607
H     1.332796   -1.394927   -0.483999    0.038456   -0.632959   -0.595156
O     0.008070    1.294938   -0.188272   -0.000007   -0.001344    0.000189
10
* Frequency(25) 3061.1317
C    -1.300246   -0.701725    0.043423    0.049636    0.054560   -0.002920
C     0.000590    0.100700   -0.014979   -0.000014   -0.001590    0.000219
H    -2.015245   -0.111142   -0.036895   -0.494700    0.404898   -0.054912
H    -1.345913   -1.136756    0.791489   -0.047193   -0.437026    0.762456
H    -1.312507   -1.276127   -0.597579   -0.013751   -0.597911   -0.674263
C     1.291460   -0.700615    0.160894   -0.048910    0.053309   -0.014116
H     1.299943   -1.062762    0.939831    0.009899   -0.378540    0.824868
H     2.013997   -0.121149    0.065487    0.498923    0.396484   -0.065607
H     1.329299   -1.337378   -0.429886    0.038456   -0.632959   -0.595156
O     0.008070    1.295061   -0.188289   -0.000007   -0.001344    0.000189
10
* Frequency(25) 3061.1317
C    -1.303374   -0.705163    0.043607    0.049636    0.054560   -0.002920
C     0.000591    0.100800   -0.014993   -0.000014   -0.001590    0.000219
H    -1.984070   -0.136658   -0.033435   -0.494700    0.404898   -0.054912
H    -1.342939   -1.109216    0.743441   -0.047193   -0.437026    0.762456
H    -1.311640   -1.238449   -0.555089   -0.013751   -0.597911   -0.674263
C     1.294543   -0.703975    0.161783   -0.048910    0.053309   -0.014116
H     1.299319   -1.038907    0.887850    0.009899   -0.378540    0.824868
H     1.982556   -0.146134    0.069622    0.498923    0.396484   -0.065607
H     1.326876   -1.297490   -0.392381    0.038456   -0.632959   -0.595156
O     0.008071    1.295145   -0.188301   -0.000007   -0.001344    0.000189
10
* Frequency(25) 3061.1317
C    -1.304778   -0.706706    0.043689    0.049636    0.054560   -0.002920
C     0.000591    0.100845   -0.014999   -0.000014   -0.001590    0.000219
H    -1.970078   -0.148110   -0.031882   -0.494700    0.404898   -0.054912
H    -1.341604   -1.096855    0.721876   -0.047193   -0.437026    0.762456
H    -1.311251   -1.221537   -0.536018   -0.013751   -0.597911   -0.674263
C     1.295926   -0.705483    0.162183   -0.048910    0.053309   -0.014116
H     1.299039   -1.028201    0.864520    0.009899   -0.378540    0.824868
H     1.968445   -0.157348    0.071477    0.498923    0.396484   -0.065607
H     1.325788   -1.279588   -0.375548    0.038456   -0.632959   -0.595156
O     0.008071    1.295183   -0.188306   -0.000007   -0.001344    0.000189
10
* Frequency(25) 3061.1317
C    -1.304306   -0.706187    0.043662    0.049636    0.054560   -0.002920
C     0.000591    0.100830   -0.014997   -0.000014   -0.001590    0.000219
H    -1.974785   -0.144258   -0.032404   -0.494700    0.404898   -0.054912
H    -1.342053   -1.101013    0.729130   -0.047193   -0.437026    0.762456
H    -1.311382   -1.227226   -0.542433   -0.013751   -0.597911   -0.674263
C     1.295461   -0.704975    0.162048   -0.048910    0.053309   -0.014116
H     1.299133   -1.031802    0.872368    0.009899   -0.378540    0.824868
H     1.973192   -0.153576    0.070853    0.498923    0.396484   -0.065607
H     1.326154   -1.285610   -0.381211    0.038456   -0.632959   -0.595156
O     0.008071    1.295170   -0.188304   -0.000007   -0.001344    0.000189
10
* Frequency(25) 3061.1317
C    -1.302009   -0.703662    0.043526    0.049636    0.054560   -0.002920
C     0.000590    0.100757   -0.014987   -0.000014   -0.001590    0.000219
H    -1.997680   -0.125518   -0.034946   -0.494700    0.404898   -0.054912
H    -1.344237   -1.121239    0.764418   -0.047193   -0.437026    0.762456
H    -1.312019   -1.254899   -0.573640   -0.013751   -0.597911   -0.674263
C     1.293197   -0.702508    0.161395   -0.048910    0.053309   -0.014116
H     1.299591   -1.049322    0.910544    0.009899   -0.378540    0.824868
H     1.996283   -0.135226    0.067817    0.498923    0.396484   -0.065607
H     1.327934   -1.314905   -0.408755    0.038456   -0.632959   -0.595156
O     0.008071    1.295108   -0.188296   -0.000007   -0.001344    0.000189
10
* Frequency(25) 3061.1317
C    -1.298136   -0.699404    0.043298    0.049636    0.054560   -0.002920
C     0.000589    0.100633   -0.014970   -0.000014   -0.001590    0.000219
H    -2.036284   -0.093922   -0.039231   -0.494700    0.404898   -0.054912
H    -1.347920   -1.155342    0.823916   -0.047193   -0.437026    0.762456
H    -1.313092   -1.301556   -0.626255   -0.013751   -0.597911   -0.674263
C     1.289380   -0.698348    0.160294   -0.048910    0.053309   -0.014116
H     1.300364   -1.078861    0.974912    0.009899   -0.378540    0.824868
H     2.035216   -0.104287    0.062697    0.498923    0.396484   -0.065607
H     1.330935   -1.364297   -0.455198    0.038456   -0.632959   -0.595156
O     0.008070    1.295003   -0.188281   -0.000007   -0.001344    0.000189
10
* Frequency(25) 3061.1317
C    -1.293106   -0.693876    0.043003    0.049636    0.054560   -0.002920
C     0.000588    0.100472   -0.014948   -0.000014   -0.001590    0.000219
H    -2.086412   -0.052894   -0.044795   -0.494700    0.404898   -0.054912
H    -1.352702   -1.199626    0.901175   -0.047193   -0.437026    0.762456
H    -1.314485   -1.362142   -0.694578   -0.013751   -0.597911   -0.674263
C     1.284424   -0.692946    0.158863   -0.048910    0.053309   -0.014116
H     1.301367   -1.117218    1.058495    0.009899   -0.378540    0.824868
H     2.085772   -0.064111    0.056049    0.498923    0.396484   -0.065607
H     1.334831   -1.428434   -0.515505    0.038456   -0.632959   -0.595156
O     0.008069    1.294867   -0.188262   -0.000007   -0.001344    0.000189
10
* Frequency(25) 3061.1317
C    -1.287465   -0.687675    0.042671    0.049636    0.054560   -0.002920
C     0.000586    0.100291   -0.014923   -0.000014   -0.001590    0.000219
H    -2.142632   -0.006880   -0.051035   -0.494700    0.404898   -0.054912
H    -1.358065   -1.249292    0.987824   -0.047193   -0.437026    0.762456
H    -1.316048   -1.430091   -0.771204   -0.013751   -0.597911   -0.674263
C     1.278866   -0.686888    0.157259   -0.048910    0.053309   -0.014116
H     1.302492   -1.160237    1.152237    0.009899   -0.378540    0.824868
H     2.142472   -0.019053    0.048594    0.498923    0.396484   -0.065607
H     1.339202   -1.500367   -0.583141    0.038456   -0.632959   -0.595156
O     0.008068    1.294714   -0.188240   -0.000007   -0.001344    0.000189
