10
* (null), Energy   -1000.0000000
C    -1.287465   -0.687675    0.042671   -0.022385   -0.089366    0.012622
C     0.000586    0.100291   -0.014923    0.009312    1.480354   -0.214962
H    -2.142632   -0.006880   -0.051035    0.288154    0.375187   -0.035836
H    -1.358065   -1.249292    0.987824   -0.141764   -0.245290   -0.103950
H    -1.316048   -1.430091   -0.771204   -0.124880   -0.206920    0.142213
C     1.278866   -0.686888    0.157259    0.021316   -0.089489    0.013391
H     1.302492   -1.160237    1.152237    0.119057   -0.239942   -0.075574
H     2.142472   -0.019053    0.048594   -0.283492    0.372979   -0.074821
H     1.339202   -1.500367   -0.583141    0.140790   -0.206386    0.170927
O     0.008068    1.294714   -0.188240   -0.006053   -0.967605    0.140404
10
* Frequency(23) 1872.8903
C    -1.290009   -0.697831    0.044105   -0.022385   -0.089366    0.012622
C     0.001644    0.268525   -0.039352    0.009312    1.480354   -0.214962
H    -2.109884    0.035759   -0.055108    0.288154    0.375187   -0.035836
H    -1.374176   -1.277168    0.976011   -0.141764   -0.245290   -0.103950
H    -1.330240   -1.453607   -0.755042   -0.124880   -0.206920    0.142213
C     1.281288   -0.697058    0.158781    0.021316   -0.089489    0.013391
H     1.316022   -1.187505    1.143649    0.119057   -0.239942   -0.075574
H     2.110254    0.023334    0.040091   -0.283492    0.372979   -0.074821
H     1.355202   -1.523821   -0.563716    0.140790   -0.206386    0.170927
O     0.007380    1.184751   -0.172284   -0.006053   -0.967605    0.140404
10
* Frequency(23) 1872.8903
C    -1.292277   -0.706887    0.045384   -0.022385   -0.089366    0.012622
C     0.002588    0.418529   -0.061134    0.009312    1.480354   -0.214962
H    -2.080686    0.073776   -0.058739    0.288154    0.375187   -0.035836
H    -1.388541   -1.302023    0.965477   -0.141764   -0.245290   -0.103950
H    -1.342894   -1.474574   -0.740632   -0.124880   -0.206920    0.142213
C     1.283448   -0.706126    0.160138    0.021316   -0.089489    0.013391
H     1.328086   -1.211819    1.135991    0.119057   -0.239942   -0.075574
H     2.081528    0.061128    0.032509   -0.283492    0.372979   -0.074821
H     1.369468   -1.544734   -0.546396    0.140790   -0.206386    0.170927
O     0.006767    1.086704   -0.158057   -0.006053   -0.967605    0.140404
10
* Frequency(23) 1872.8903
C    -1.294024   -0.713860    0.046369   -0.022385   -0.089366    0.012622
C     0.003315    0.534047   -0.077909    0.009312    1.480354   -0.214962
H    -2.058200    0.103053   -0.061536    0.288154    0.375187   -0.035836
H    -1.399603   -1.321164    0.957366   -0.141764   -0.245290   -0.103950
H    -1.352639   -1.490721   -0.729535   -0.124880   -0.206920    0.142213
C     1.285112   -0.713109    0.161183    0.021316   -0.089489    0.013391
H     1.337377   -1.230542    1.130093    0.119057   -0.239942   -0.075574
H     2.059406    0.090233    0.026670   -0.283492    0.372979   -0.074821
H     1.380454   -1.560839   -0.533058    0.140790   -0.206386    0.170927
O     0.006295    1.011198   -0.147101   -0.006053   -0.967605    0.140404
10
* Frequency(23) 1872.8903
C    -1.295060   -0.717996    0.046953   -0.022385   -0.089366    0.012622
C     0.003746    0.602560   -0.087858    0.009312    1.480354   -0.214962
H    -2.044864    0.120418   -0.063194    0.288154    0.375187   -0.035836
H    -1.406164   -1.332516    0.952555   -0.141764   -0.245290   -0.103950
H    -1.358418   -1.500297   -0.722953   -0.124880   -0.206920    0.142213
C     1.286098   -0.717251    0.161802    0.021316   -0.089489    0.013391
H     1.342887   -1.241647    1.126596    0.119057   -0.239942   -0.075574
H     2.046286    0.107495    0.023207   -0.283492    0.372979   -0.074821
H     1.386970   -1.570391   -0.525147    0.140790   -0.206386    0.170927
O     0.006015    0.966416   -0.140603   -0.006053   -0.967605    0.140404
10
* Frequency(23) 1872.8903
C    -1.295273   -0.718847    0.047073   -0.022385   -0.089366    0.012622
C     0.003834    0.616645   -0.089903    0.009312    1.480354   -0.214962
H    -2.042122    0.123987   -0.063535    0.288154    0.375187   -0.035836
H    -1.407513   -1.334850    0.951566   -0.141764   -0.245290   -0.103950
H    -1.359607   -1.502266   -0.721600   -0.124880   -0.206920    0.142213
C     1.286301   -0.718102    0.161930    0.021316   -0.089489    0.013391
H     1.344019   -1.243930    1.125877    0.119057   -0.239942   -0.075574
H     2.043588    0.111044    0.022496   -0.283492    0.372979   -0.074821
H     1.388310   -1.572355   -0.523521    0.140790   -0.206386    0.170927
O     0.005957    0.957209   -0.139267   -0.006053   -0.967605    0.140404
10
* Frequency(23) 1872.8903
C    -1.294640   -0.716319    0.046716   -0.022385   -0.089366    0.012622
C     0.003571    0.574775   -0.083823    0.009312    1.480354   -0.214962
H    -2.050272    0.113376   -0.062522    0.288154    0.375187   -0.035836
H    -1.403503   -1.327912    0.954506   -0.141764   -0.245290   -0.103950
H    -1.356075   -1.496414   -0.725622   -0.124880   -0.206920    0.142213
C     1.285698   -0.715571    0.161551    0.021316   -0.089489    0.013391
H     1.340652   -1.237144    1.128014    0.119057   -0.239942   -0.075574
H     2.051606    0.100494    0.024612   -0.283492    0.372979   -0.074821
H     1.384328   -1.566518   -0.528355    0.140790   -0.206386    0.170927
O     0.006128    0.984577   -0.143238   -0.006053   -0.967605    0.140404
10
* Frequency(23) 1872.8903
C    -1.293229   -0.710688    0.045921   -0.022385   -0.089366    0.012622
C     0.002984    0.481487   -0.070276    0.009312    1.480354   -0.214962
H    -2.068431    0.089732   -0.060263    0.288154    0.375187   -0.035836
H    -1.394570   -1.312455    0.961057   -0.141764   -0.245290   -0.103950
H    -1.348205   -1.483374   -0.734584   -0.124880   -0.206920    0.142213
C     1.284355   -0.709932    0.160707    0.021316   -0.089489    0.013391
H     1.333149   -1.222023    1.132777    0.119057   -0.239942   -0.075574
H     2.069471    0.076990    0.029327   -0.283492    0.372979   -0.074821
H     1.375456   -1.553512   -0.539127    0.140790   -0.206386    0.170927
O     0.006510    1.045553   -0.152086   -0.006053   -0.967605    0.140404
10
* Frequency(23) 1872.8903
C    -1.291194   -0.702562    0.044773   -0.022385   -0.089366    0.012622
C     0.002137    0.346890   -0.050732    0.009312    1.480354   -0.214962
H    -2.094631    0.055620   -0.057005    0.288154    0.375187   -0.035836
H    -1.381680   -1.290152    0.970508   -0.141764   -0.245290   -0.103950
H    -1.336851   -1.464560   -0.747514   -0.124880   -0.206920    0.142213
C     1.282417   -0.701795    0.159490    0.021316   -0.089489    0.013391
H     1.322325   -1.200207    1.139648    0.119057   -0.239942   -0.075574
H     2.095247    0.043078    0.036130   -0.283492    0.372979   -0.074821
H     1.362655   -1.534747   -0.554668    0.140790   -0.206386    0.170927
O     0.007060    1.133529   -0.164852   -0.006053   -0.967605    0.140404
10
* Frequency(23) 1872.8903
C    -1.288755   -0.692824    0.043398   -0.022385   -0.089366    0.012622
C     0.001122    0.185571   -0.027306    0.009312    1.480354   -0.214962
H    -2.126032    0.014734   -0.053100    0.288154    0.375187   -0.035836
H    -1.366232   -1.263422    0.981836   -0.141764   -0.245290   -0.103950
H    -1.323242   -1.442012   -0.763012   -0.124880   -0.206920    0.142213
C     1.280094   -0.692043    0.158030    0.021316   -0.089489    0.013391
H     1.309350   -1.174060    1.147883    0.119057   -0.239942   -0.075574
H     2.126140    0.002434    0.044283   -0.283492    0.372979   -0.074821
H     1.347312   -1.512256   -0.573294    0.140790   -0.206386    0.170927
O     0.007720    1.238973   -0.180152   -0.006053   -0.967605    0.140404
10
* Frequency(23) 1872.8903
C    -1.286175   -0.682527    0.041944   -0.022385   -0.089366    0.012622
C     0.000050    0.015010   -0.002539    0.009312    1.480354   -0.214962
H    -2.159232   -0.028493   -0.048971    0.288154    0.375187   -0.035836
H    -1.349898   -1.235161    0.993813   -0.141764   -0.245290   -0.103950
H    -1.308854   -1.418171   -0.779397   -0.124880   -0.206920    0.142213
C     1.277638   -0.681733    0.156488    0.021316   -0.089489    0.013391
H     1.295633   -1.146415    1.156591    0.119057   -0.239942   -0.075574
H     2.158803   -0.040540    0.052904   -0.283492    0.372979   -0.074821
H     1.331091   -1.488477   -0.592988    0.140790   -0.206386    0.170927
O     0.008417    1.350456   -0.196329   -0.006053   -0.967605    0.140404
10
* Frequency(23) 1872.8903
C    -1.283736   -0.672789    0.040568   -0.022385   -0.089366    0.012622
C    -0.000965   -0.146309    0.020886    0.009312    1.480354   -0.214962
H    -2.190633   -0.069379   -0.045066    0.288154    0.375187   -0.035836
H    -1.334450   -1.208431    1.005140   -0.141764   -0.245290   -0.103950
H    -1.295245   -1.395622   -0.794894   -0.124880   -0.206920    0.142213
C     1.275315   -0.671981    0.155028    0.021316   -0.089489    0.013391
H     1.282659   -1.120267    1.164826    0.119057   -0.239942   -0.075574
H     2.189696   -0.081184    0.061057   -0.283492    0.372979   -0.074821
H     1.315749   -1.465987   -0.611614    0.140790   -0.206386    0.170927
O     0.009077    1.455900   -0.211629   -0.006053   -0.967605    0.140404
10
* Frequency(23) 1872.8903
C    -1.281701   -0.664663    0.039420   -0.022385   -0.089366    0.012622
C    -0.001812   -0.280905    0.040431    0.009312    1.480354   -0.214962
H    -2.216832   -0.103492   -0.041808    0.288154    0.375187   -0.035836
H    -1.321560   -1.186129    1.014592   -0.141764   -0.245290   -0.103950
H    -1.283891   -1.376809   -0.807825   -0.124880   -0.206920    0.142213
C     1.273377   -0.663844    0.153811    0.021316   -0.089489    0.013391
H     1.271834   -1.098451    1.171698    0.119057   -0.239942   -0.075574
H     2.215472   -0.115096    0.067860   -0.283492    0.372979   -0.074821
H     1.302948   -1.447222   -0.627155    0.140790   -0.206386    0.170927
O     0.009627    1.543876   -0.224395   -0.006053   -0.967605    0.140404
10
* Frequency(23) 1872.8903
C    -1.280290   -0.659032    0.038625   -0.022385   -0.089366    0.012622
C    -0.002399   -0.374193    0.053977    0.009312    1.480354   -0.214962
H    -2.234991   -0.127135   -0.039549    0.288154    0.375187   -0.035836
H    -1.312627   -1.170671    1.021142   -0.141764   -0.245290   -0.103950
H    -1.276021   -1.363769   -0.816786   -0.124880   -0.206920    0.142213
C     1.272034   -0.658205    0.152967    0.021316   -0.089489    0.013391
H     1.264331   -1.083331    1.176460    0.119057   -0.239942   -0.075574
H     2.233337   -0.138600    0.072575   -0.283492    0.372979   -0.074821
H     1.294076   -1.434216   -0.637927    0.140790   -0.206386    0.170927
O     0.010009    1.604852   -0.233243   -0.006053   -0.967605    0.140404
10
* Frequency(23) 1872.8903
C    -1.279657   -0.656504    0.038268   -0.022385   -0.089366    0.012622
C    -0.002662   -0.416063    0.060057    0.009312    1.480354   -0.214962
H    -2.243141   -0.137747   -0.038536    0.288154    0.375187   -0.035836
H    -1.308617   -1.163733    1.024082   -0.141764   -0.245290   -0.103950
H    -1.272489   -1.357917   -0.820809   -0.124880   -0.206920    0.142213
C     1.271431   -0.655674    0.152588    0.021316   -0.089489    0.013391
H     1.260964   -1.076544    1.178598    0.119057   -0.239942   -0.075574
H     2.241355   -0.149150    0.074692   -0.283492    0.372979   -0.074821
H     1.290093   -1.428378   -0.642761    0.140790   -0.206386    0.170927
O     0.010180    1.632220   -0.237214   -0.006053   -0.967605    0.140404
10
* Frequency(23) 1872.8903
C    -1.279870   -0.657354    0.038388   -0.022385   -0.089366    0.012622
C    -0.002573   -0.401979    0.058012    0.009312    1.480354   -0.214962
H    -2.240400   -0.134177   -0.038877    0.288154    0.375187   -0.035836
H    -1.309966   -1.166067    1.023093   -0.141764   -0.245290   -0.103950
H    -1.273677   -1.359885   -0.819456   -0.124880   -0.206920    0.142213
C     1.271634   -0.656525    0.152716    0.021316   -0.089489    0.013391
H     1.262097   -1.078827    1.177879    0.119057   -0.239942   -0.075574
H     2.238658   -0.145601    0.073980   -0.283492    0.372979   -0.074821
H     1.291433   -1.430342   -0.641135    0.140790   -0.206386    0.170927
O     0.010122    1.623013   -0.235878   -0.006053   -0.967605    0.140404
10
* Frequency(23) 1872.8903
C    -1.280906   -0.661490    0.038972   -0.022385   -0.089366    0.012622
C    -0.002142   -0.333465    0.048063    0.009312    1.480354   -0.214962
H    -2.227063   -0.116813   -0.040535    0.288154    0.375187   -0.035836
H    -1.316527   -1.177420    1.018282   -0.141764   -0.245290   -0.103950
H    -1.279457   -1.369462   -0.812874   -0.124880   -0.206920    0.142213
C     1.272620   -0.660667    0.153335    0.021316   -0.089489    0.013391
H     1.267607   -1.089932    1.174381    0.119057   -0.239942   -0.075574
H     2.225537   -0.128339    0.070517   -0.283492    0.372979   -0.074821
H     1.297949   -1.439894   -0.633224    0.140790   -0.206386    0.170927
O     0.009842    1.578231   -0.229380   -0.006053   -0.967605    0.140404
10
* Frequency(23) 1872.8903
C    -1.282653   -0.668464    0.039957   -0.022385   -0.089366    0.012622
C    -0.001416   -0.217947    0.031288    0.009312    1.480354   -0.214962
H    -2.204578   -0.087535   -0.043332    0.288154    0.375187   -0.035836
H    -1.327589   -1.196561    1.010171   -0.141764   -0.245290   -0.103950
H    -1.289202   -1.385609   -0.801776   -0.124880   -0.206920    0.142213
C     1.274283   -0.667650    0.154380    0.021316   -0.089489    0.013391
H     1.276898   -1.108656    1.168484    0.119057   -0.239942   -0.075574
H     2.203415   -0.099234    0.064678   -0.283492    0.372979   -0.074821
H     1.308935   -1.455999   -0.619886    0.140790   -0.206386    0.170927
O     0.009370    1.502725   -0.218424   -0.006053   -0.967605    0.140404
10
* Frequency(23) 1872.8903
C    -1.284921   -0.677519    0.041236   -0.022385   -0.089366    0.012622
C    -0.000472   -0.067944    0.009506    0.009312    1.480354   -0.214962
H    -2.175379   -0.049518   -0.046963    0.288154    0.375187   -0.035836
H    -1.341954   -1.221416    0.999638   -0.141764   -0.245290   -0.103950
H    -1.301856   -1.406576   -0.787366   -0.124880   -0.206920    0.142213
C     1.276443   -0.676718    0.155737    0.021316   -0.089489    0.013391
H     1.288962   -1.132969    1.160826    0.119057   -0.239942   -0.075574
H     2.174689   -0.061440    0.057097   -0.283492    0.372979   -0.074821
H     1.323202   -1.476912   -0.602566    0.140790   -0.206386    0.170927
O     0.008756    1.404678   -0.204197   -0.006053   -0.967605    0.140404
10
* Frequency(23) 1872.8903
C    -1.287465   -0.687675    0.042671   -0.022385   -0.089366    0.012622
C     0.000586    0.100291   -0.014923    0.009312    1.480354   -0.214962
H    -2.142632   -0.006880   -0.051035    0.288154    0.375187   -0.035836
H    -1.358065   -1.249292    0.987824   -0.141764   -0.245290   -0.103950
H    -1.316048   -1.430091   -0.771204   -0.124880   -0.206920    0.142213
C     1.278866   -0.686888    0.157259    0.021316   -0.089489    0.013391
H     1.302492   -1.160237    1.152237    0.119057   -0.239942   -0.075574
H     2.142472   -0.019053    0.048594   -0.283492    0.372979   -0.074821
H     1.339202   -1.500367   -0.583141    0.140790   -0.206386    0.170927
O     0.008068    1.294714   -0.188240   -0.006053   -0.967605    0.140404
