10
* (null), Energy   -1000.0000000
C    -1.287465   -0.687675    0.042671   -0.177153   -0.123635    0.007011
C     0.000586    0.100291   -0.014923    0.001182    0.007069   -0.000812
H    -2.142632   -0.006880   -0.051035    0.382577    0.566217   -0.033459
H    -1.358065   -1.249292    0.987824    0.657982    0.415666    0.371525
H    -1.316048   -1.430091   -0.771204    0.691422    0.325062   -0.411036
C     1.278866   -0.686888    0.157259    0.173811   -0.121748    0.029378
H     1.302492   -1.160237    1.152237   -0.682840    0.435844    0.297024
H     2.142472   -0.019053    0.048594   -0.374730    0.552642   -0.137035
H     1.339202   -1.500367   -0.583141   -0.648008    0.297270   -0.474571
O     0.008068    1.294714   -0.188240   -0.000042    0.015560   -0.002291
10
* Frequency(17) 1356.3605
C    -1.307598   -0.701726    0.043467   -0.177153   -0.123635    0.007011
C     0.000720    0.101094   -0.015015    0.001182    0.007069   -0.000812
H    -2.099154    0.057468   -0.054838    0.382577    0.566217   -0.033459
H    -1.283289   -1.202053    1.030046    0.657982    0.415666    0.371525
H    -1.237471   -1.393150   -0.817916    0.691422    0.325062   -0.411036
C     1.298619   -0.700724    0.160598    0.173811   -0.121748    0.029378
H     1.224891   -1.110706    1.185992   -0.682840    0.435844    0.297024
H     2.099885    0.043752    0.033020   -0.374730    0.552642   -0.137035
H     1.265559   -1.466584   -0.637074   -0.648008    0.297270   -0.474571
O     0.008064    1.296483   -0.188501   -0.000042    0.015560   -0.002291
10
* Frequency(17) 1356.3605
C    -1.325548   -0.714254    0.044178   -0.177153   -0.123635    0.007011
C     0.000840    0.101811   -0.015098    0.001182    0.007069   -0.000812
H    -2.060388    0.114843   -0.058228    0.382577    0.566217   -0.033459
H    -1.216616   -1.159934    1.067693    0.657982    0.415666    0.371525
H    -1.167410   -1.360211   -0.859566    0.691422    0.325062   -0.411036
C     1.316231   -0.713061    0.163575    0.173811   -0.121748    0.029378
H     1.155699   -1.066542    1.216090   -0.682840    0.435844    0.297024
H     2.061914    0.099751    0.019135   -0.374730    0.552642   -0.137035
H     1.199896   -1.436461   -0.685162   -0.648008    0.297270   -0.474571
O     0.008059    1.298059   -0.188733   -0.000042    0.015560   -0.002291
10
* Frequency(17) 1356.3605
C    -1.339372   -0.723901    0.044725   -0.177153   -0.123635    0.007011
C     0.000932    0.102362   -0.015161    0.001182    0.007069   -0.000812
H    -2.030534    0.159027   -0.060839    0.382577    0.566217   -0.033459
H    -1.165271   -1.127498    1.096684    0.657982    0.415666    0.371525
H    -1.113456   -1.334845   -0.891641    0.691422    0.325062   -0.411036
C     1.329794   -0.722561    0.165867    0.173811   -0.121748    0.029378
H     1.102414   -1.032531    1.239268   -0.682840    0.435844    0.297024
H     2.032672    0.142876    0.008441   -0.374730    0.552642   -0.137035
H     1.149330   -1.413264   -0.722194   -0.648008    0.297270   -0.474571
O     0.008056    1.299274   -0.188912   -0.000042    0.015560   -0.002291
10
* Frequency(17) 1356.3605
C    -1.347571   -0.729623    0.045049   -0.177153   -0.123635    0.007011
C     0.000987    0.102689   -0.015199    0.001182    0.007069   -0.000812
H    -2.012827    0.185232   -0.062388    0.382577    0.566217   -0.033459
H    -1.134818   -1.108260    1.113879    0.657982    0.415666    0.371525
H    -1.081455   -1.319801   -0.910665    0.691422    0.325062   -0.411036
C     1.337838   -0.728196    0.167227    0.173811   -0.121748    0.029378
H     1.070811   -1.012360    1.253014   -0.682840    0.435844    0.297024
H     2.015329    0.168453    0.002099   -0.374730    0.552642   -0.137035
H     1.119339   -1.399506   -0.744158   -0.648008    0.297270   -0.474571
O     0.008054    1.299994   -0.189018   -0.000042    0.015560   -0.002291
10
* Frequency(17) 1356.3605
C    -1.349257   -0.730800    0.045116   -0.177153   -0.123635    0.007011
C     0.000998    0.102757   -0.015206    0.001182    0.007069   -0.000812
H    -2.009187    0.190619   -0.062706    0.382577    0.566217   -0.033459
H    -1.128558   -1.104305    1.117414    0.657982    0.415666    0.371525
H    -1.074877   -1.316708   -0.914575    0.691422    0.325062   -0.411036
C     1.339492   -0.729355    0.167506    0.173811   -0.121748    0.029378
H     1.064314   -1.008213    1.255840   -0.682840    0.435844    0.297024
H     2.011764    0.173711    0.000795   -0.374730    0.552642   -0.137035
H     1.113173   -1.396677   -0.748674   -0.648008    0.297270   -0.474571
O     0.008054    1.300142   -0.189040   -0.000042    0.015560   -0.002291
10
* Frequency(17) 1356.3605
C    -1.344246   -0.727303    0.044918   -0.177153   -0.123635    0.007011
C     0.000965    0.102557   -0.015183    0.001182    0.007069   -0.000812
H    -2.020008    0.174605   -0.061760    0.382577    0.566217   -0.033459
H    -1.147168   -1.116062    1.106906    0.657982    0.415666    0.371525
H    -1.094433   -1.325902   -0.902950    0.691422    0.325062   -0.411036
C     1.334576   -0.725911    0.166675    0.173811   -0.121748    0.029378
H     1.083627   -1.020540    1.247439   -0.682840    0.435844    0.297024
H     2.022363    0.158080    0.004671   -0.374730    0.552642   -0.137035
H     1.131502   -1.405085   -0.735251   -0.648008    0.297270   -0.474571
O     0.008055    1.299702   -0.188975   -0.000042    0.015560   -0.002291
10
* Frequency(17) 1356.3605
C    -1.333083   -0.719512    0.044476   -0.177153   -0.123635    0.007011
C     0.000890    0.102111   -0.015132    0.001182    0.007069   -0.000812
H    -2.044117    0.138923   -0.059651    0.382577    0.566217   -0.033459
H    -1.188633   -1.142256    1.083493    0.657982    0.415666    0.371525
H    -1.138004   -1.346387   -0.877047    0.691422    0.325062   -0.411036
C     1.323623   -0.718239    0.164824    0.173811   -0.121748    0.029378
H     1.126658   -1.048006    1.228722   -0.682840    0.435844    0.297024
H     2.045977    0.123254    0.013307   -0.374730    0.552642   -0.137035
H     1.172337   -1.423819   -0.705345   -0.648008    0.297270   -0.474571
O     0.008058    1.298721   -0.188830   -0.000042    0.015560   -0.002291
10
* Frequency(17) 1356.3605
C    -1.316975   -0.708271    0.043839   -0.177153   -0.123635    0.007011
C     0.000783    0.101468   -0.015058    0.001182    0.007069   -0.000812
H    -2.078902    0.087442   -0.056609    0.382577    0.566217   -0.033459
H    -1.248457   -1.180049    1.049713    0.657982    0.415666    0.371525
H    -1.200870   -1.375942   -0.839675    0.691422    0.325062   -0.411036
C     1.307820   -0.707169    0.162153    0.173811   -0.121748    0.029378
H     1.188743   -1.087634    1.201716   -0.682840    0.435844    0.297024
H     2.080048    0.073007    0.025766   -0.374730    0.552642   -0.137035
H     1.231255   -1.450847   -0.662196   -0.648008    0.297270   -0.474571
O     0.008061    1.297306   -0.188622   -0.000042    0.015560   -0.002291
10
* Frequency(17) 1356.3605
C    -1.297670   -0.694798    0.043075   -0.177153   -0.123635    0.007011
C     0.000654    0.100698   -0.014970    0.001182    0.007069   -0.000812
H    -2.120592    0.025739   -0.052963    0.382577    0.566217   -0.033459
H    -1.320160   -1.225346    1.009227    0.657982    0.415666    0.371525
H    -1.276216   -1.411365   -0.794883    0.691422    0.325062   -0.411036
C     1.288879   -0.693902    0.158951    0.173811   -0.121748    0.029378
H     1.263155   -1.135129    1.169348   -0.682840    0.435844    0.297024
H     2.120884    0.012784    0.040699   -0.374730    0.552642   -0.137035
H     1.301871   -1.483242   -0.610480   -0.648008    0.297270   -0.474571
O     0.008066    1.295611   -0.188372   -0.000042    0.015560   -0.002291
10
* Frequency(17) 1356.3605
C    -1.277260   -0.680553    0.042267   -0.177153   -0.123635    0.007011
C     0.000518    0.099884   -0.014876    0.001182    0.007069   -0.000812
H    -2.164671   -0.039498   -0.049108    0.382577    0.566217   -0.033459
H    -1.395970   -1.273237    0.966421    0.657982    0.415666    0.371525
H    -1.355879   -1.448818   -0.747525    0.691422    0.325062   -0.411036
C     1.268853   -0.679874    0.155567    0.173811   -0.121748    0.029378
H     1.341829   -1.185345    1.135126   -0.682840    0.435844    0.297024
H     2.164059   -0.050890    0.056488   -0.374730    0.552642   -0.137035
H     1.376532   -1.517492   -0.555802   -0.648008    0.297270   -0.474571
O     0.008071    1.293818   -0.188108   -0.000042    0.015560   -0.002291
10
* Frequency(17) 1356.3605
C    -1.257955   -0.667080    0.041503   -0.177153   -0.123635    0.007011
C     0.000389    0.099113   -0.014788    0.001182    0.007069   -0.000812
H    -2.206362   -0.101201   -0.045462    0.382577    0.566217   -0.033459
H    -1.467673   -1.318534    0.925935    0.657982    0.415666    0.371525
H    -1.431226   -1.484241   -0.702733    0.691422    0.325062   -0.411036
C     1.249912   -0.666607    0.152365    0.173811   -0.121748    0.029378
H     1.416240   -1.232841    1.102759   -0.682840    0.435844    0.297024
H     2.204895   -0.111113    0.071421   -0.374730    0.552642   -0.137035
H     1.447148   -1.549887   -0.504086   -0.648008    0.297270   -0.474571
O     0.008075    1.292122   -0.187859   -0.000042    0.015560   -0.002291
10
* Frequency(17) 1356.3605
C    -1.241847   -0.655839    0.040865   -0.177153   -0.123635    0.007011
C     0.000282    0.098470   -0.014714    0.001182    0.007069   -0.000812
H    -2.241146   -0.152682   -0.042420    0.382577    0.566217   -0.033459
H    -1.527498   -1.356327    0.892155    0.657982    0.415666    0.371525
H    -1.494092   -1.513796   -0.665361    0.691422    0.325062   -0.411036
C     1.234109   -0.655538    0.149694    0.173811   -0.121748    0.029378
H     1.478325   -1.272469    1.075753   -0.682840    0.435844    0.297024
H     2.238966   -0.161360    0.083881   -0.374730    0.552642   -0.137035
H     1.506066   -1.576915   -0.460937   -0.648008    0.297270   -0.474571
O     0.008079    1.290708   -0.187650   -0.000042    0.015560   -0.002291
10
* Frequency(17) 1356.3605
C    -1.230684   -0.648048    0.040423   -0.177153   -0.123635    0.007011
C     0.000207    0.098025   -0.014662    0.001182    0.007069   -0.000812
H    -2.265255   -0.188364   -0.040311    0.382577    0.566217   -0.033459
H    -1.568962   -1.382521    0.868743    0.657982    0.415666    0.371525
H    -1.537663   -1.534281   -0.639459    0.691422    0.325062   -0.411036
C     1.223156   -0.647865    0.147843    0.173811   -0.121748    0.029378
H     1.521356   -1.299934    1.057035   -0.682840    0.435844    0.297024
H     2.262580   -0.196186    0.092516   -0.374730    0.552642   -0.137035
H     1.546902   -1.595648   -0.431031   -0.648008    0.297270   -0.474571
O     0.008082    1.289727   -0.187506   -0.000042    0.015560   -0.002291
10
* Frequency(17) 1356.3605
C    -1.225673   -0.644551    0.040225   -0.177153   -0.123635    0.007011
C     0.000174    0.097825   -0.014640    0.001182    0.007069   -0.000812
H    -2.276076   -0.204379   -0.039365    0.382577    0.566217   -0.033459
H    -1.587572   -1.394278    0.858234    0.657982    0.415666    0.371525
H    -1.557219   -1.543475   -0.627833    0.691422    0.325062   -0.411036
C     1.218240   -0.644422    0.147012    0.173811   -0.121748    0.029378
H     1.540669   -1.312262    1.048634   -0.682840    0.435844    0.297024
H     2.273179   -0.211817    0.096392   -0.374730    0.552642   -0.137035
H     1.565230   -1.604056   -0.417608   -0.648008    0.297270   -0.474571
O     0.008083    1.289287   -0.187441   -0.000042    0.015560   -0.002291
10
* Frequency(17) 1356.3605
C    -1.227359   -0.645727    0.040292   -0.177153   -0.123635    0.007011
C     0.000185    0.097892   -0.014647    0.001182    0.007069   -0.000812
H    -2.272436   -0.198991   -0.039683    0.382577    0.566217   -0.033459
H    -1.581312   -1.390323    0.861769    0.657982    0.415666    0.371525
H    -1.550641   -1.540382   -0.631744    0.691422    0.325062   -0.411036
C     1.219893   -0.645580    0.147291    0.173811   -0.121748    0.029378
H     1.534173   -1.308115    1.051460   -0.682840    0.435844    0.297024
H     2.269614   -0.206559    0.095088   -0.374730    0.552642   -0.137035
H     1.559064   -1.601228   -0.422124   -0.648008    0.297270   -0.474571
O     0.008083    1.289435   -0.187463   -0.000042    0.015560   -0.002291
10
* Frequency(17) 1356.3605
C    -1.235558   -0.651449    0.040616   -0.177153   -0.123635    0.007011
C     0.000240    0.098219   -0.014685    0.001182    0.007069   -0.000812
H    -2.254730   -0.172786   -0.041232    0.382577    0.566217   -0.033459
H    -1.550859   -1.371085    0.878964    0.657982    0.415666    0.371525
H    -1.518640   -1.525337   -0.650767    0.691422    0.325062   -0.411036
C     1.227938   -0.651215    0.148651    0.173811   -0.121748    0.029378
H     1.502570   -1.287943    1.065207   -0.682840    0.435844    0.297024
H     2.252271   -0.180982    0.088746   -0.374730    0.552642   -0.137035
H     1.529073   -1.587469   -0.444088   -0.648008    0.297270   -0.474571
O     0.008081    1.290155   -0.187569   -0.000042    0.015560   -0.002291
10
* Frequency(17) 1356.3605
C    -1.249382   -0.661097    0.041163   -0.177153   -0.123635    0.007011
C     0.000332    0.098771   -0.014748    0.001182    0.007069   -0.000812
H    -2.224876   -0.128602   -0.043843    0.382577    0.566217   -0.033459
H    -1.499514   -1.338649    0.907956    0.657982    0.415666    0.371525
H    -1.464686   -1.499971   -0.682842    0.691422    0.325062   -0.411036
C     1.241501   -0.660715    0.150943    0.173811   -0.121748    0.029378
H     1.449285   -1.253933    1.088385   -0.682840    0.435844    0.297024
H     2.223029   -0.137857    0.078053   -0.374730    0.552642   -0.137035
H     1.478507   -1.564272   -0.481120   -0.648008    0.297270   -0.474571
O     0.008077    1.291369   -0.187748   -0.000042    0.015560   -0.002291
10
* Frequency(17) 1356.3605
C    -1.267332   -0.673625    0.041874   -0.177153   -0.123635    0.007011
C     0.000452    0.099487   -0.014831    0.001182    0.007069   -0.000812
H    -2.186110   -0.071227   -0.047233    0.382577    0.566217   -0.033459
H    -1.432841   -1.296530    0.945602    0.657982    0.415666    0.371525
H    -1.394625   -1.467033   -0.724492    0.691422    0.325062   -0.411036
C     1.259113   -0.673052    0.153920    0.173811   -0.121748    0.029378
H     1.380093   -1.209769    1.118482   -0.682840    0.435844    0.297024
H     2.185058   -0.081858    0.064167   -0.374730    0.552642   -0.137035
H     1.412844   -1.534150   -0.529208   -0.648008    0.297270   -0.474571
O     0.008073    1.292946   -0.187980   -0.000042    0.015560   -0.002291
10
* Frequency(17) 1356.3605
C    -1.287465   -0.687675    0.042671   -0.177153   -0.123635    0.007011
C     0.000586    0.100291   -0.014923    0.001182    0.007069   -0.000812
H    -2.142632   -0.006880   -0.051035    0.382577    0.566217   -0.033459
H    -1.358065   -1.249292    0.987824    0.657982    0.415666    0.371525
H    -1.316048   -1.430091   -0.771204    0.691422    0.325062   -0.411036
C     1.278866   -0.686888    0.157259    0.173811   -0.121748    0.029378
H     1.302492   -1.160237    1.152237   -0.682840    0.435844    0.297024
H     2.142472   -0.019053    0.048594   -0.374730    0.552642   -0.137035
H     1.339202   -1.500367   -0.583141   -0.648008    0.297270   -0.474571
O     0.008068    1.294714   -0.188240   -0.000042    0.015560   -0.002291
