10
* (null), Energy   -1000.0000000
C    -1.287465   -0.687675    0.042671    0.000000    0.000000    0.000000
C     0.000586    0.100291   -0.014923    0.000000    0.000000    0.000000
H    -2.142632   -0.006880   -0.051035    0.000000    0.000000    0.000000
H    -1.358065   -1.249292    0.987824    0.000000    0.000000    0.000000
H    -1.316048   -1.430091   -0.771204    0.000000    0.000000    0.000000
C     1.278866   -0.686888    0.157259    0.000000    0.000000    0.000000
H     1.302492   -1.160237    1.152237    0.000000    0.000000    0.000000
H     2.142472   -0.019053    0.048594    0.000000    0.000000    0.000000
H     1.339202   -1.500367   -0.583141    0.000000    0.000000    0.000000
O     0.008068    1.294714   -0.188240    0.000000    0.000000    0.000000
10
* Frequency(2)    0.0000
C    -1.287465   -0.687675    0.042671    0.000000    0.000000    0.000000
C     0.000586    0.100291   -0.014923    0.000000    0.000000    0.000000
H    -2.142632   -0.006880   -0.051035    0.000000    0.000000    0.000000
H    -1.358065   -1.249292    0.987824    0.000000    0.000000    0.000000
H    -1.316048   -1.430091   -0.771204    0.000000    0.000000    0.000000
C     1.278866   -0.686888    0.157259    0.000000    0.000000    0.000000
H     1.302492   -1.160237    1.152237    0.000000    0.000000    0.000000
H     2.142472   -0.019053    0.048594    0.000000    0.000000    0.000000
H     1.339202   -1.500367   -0.583141    0.000000    0.000000    0.000000
O     0.008068    1.294714   -0.188240    0.000000    0.000000    0.000000
10
* Frequency(2)    0.0000
C    -1.287465   -0.687675    0.042671    0.000000    0.000000    0.000000
C     0.000586    0.100291   -0.014923    0.000000    0.000000    0.000000
H    -2.142632   -0.006880   -0.051035    0.000000    0.000000    0.000000
H    -1.358065   -1.249292    0.987824    0.000000    0.000000    0.000000
H    -1.316048   -1.430091   -0.771204    0.000000    0.000000    0.000000
C     1.278866   -0.686888    0.157259    0.000000    0.000000    0.000000
H     1.302492   -1.160237    1.152237    0.000000    0.000000    0.000000
H     2.142472   -0.019053    0.048594    0.000000    0.000000    0.000000
H     1.339202   -1.500367   -0.583141    0.000000    0.000000    0.000000
O     0.008068    1.294714   -0.188240    0.000000    0.000000    0.000000
10
* Frequency(2)    0.0000
C    -1.287465   -0.687675    0.042671    0.000000    0.000000    0.000000
C     0.000586    0.100291   -0.014923    0.000000    0.000000    0.000000
H    -2.142632   -0.006880   -0.051035    0.000000    0.000000    0.000000
H    -1.358065   -1.249292    0.987824    0.000000    0.000000    0.000000
H    -1.316048   -1.430091   -0.771204    0.000000    0.000000    0.000000
C     1.278866   -0.686888    0.157259    0.000000    0.000000    0.000000
H     1.302492   -1.160237    1.152237    0.000000    0.000000    0.000000
H     2.142472   -0.019053    0.048594    0.000000    0.000000    0.000000
H     1.339202   -1.500367   -0.583141    0.000000    0.000000    0.000000
O     0.008068    1.294714   -0.188240    0.000000    0.000000    0.000000
10
* Frequency(2)    0.0000
C    -1.287465   -0.687675    0.042671    0.000000    0.000000    0.000000
C     0.000586    0.100291   -0.014923    0.000000    0.000000    0.000000
H    -2.142632   -0.006880   -0.051035    0.000000    0.000000    0.000000
H    -1.358065   -1.249292    0.987824    0.000000    0.000000    0.000000
H    -1.316048   -1.430091   -0.771204    0.000000    0.000000    0.000000
C     1.278866   -0.686888    0.157259    0.000000    0.000000    0.000000
H     1.302492   -1.160237    1.152237    0.000000    0.000000    0.000000
H     2.142472   -0.019053    0.048594    0.000000    0.000000    0.000000
H     1.339202   -1.500367   -0.583141    0.000000    0.000000    0.000000
O     0.008068    1.294714   -0.188240    0.000000    0.000000    0.000000
10
* Frequency(2)    0.0000
C    -1.287465   -0.687675    0.042671    0.000000    0.000000    0.000000
C     0.000586    0.100291   -0.014923    0.000000    0.000000    0.000000
H    -2.142632   -0.006880   -0.051035    0.000000    0.000000    0.000000
H    -1.358065   -1.249292    0.987824    0.000000    0.000000    0.000000
H    -1.316048   -1.430091   -0.771204    0.000000    0.000000    0.000000
C     1.278866   -0.686888    0.157259    0.000000    0.000000    0.000000
H     1.302492   -1.160237    1.152237    0.000000    0.000000    0.000000
H     2.142472   -0.019053    0.048594    0.000000    0.000000    0.000000
H     1.339202   -1.500367   -0.583141    0.000000    0.000000    0.000000
O     0.008068    1.294714   -0.188240    0.000000    0.000000    0.000000
10
* Frequency(2)    0.0000
C    -1.287465   -0.687675    0.042671    0.000000    0.000000    0.000000
C     0.000586    0.100291   -0.014923    0.000000    0.000000    0.000000
H    -2.142632   -0.006880   -0.051035    0.000000    0.000000    0.000000
H    -1.358065   -1.249292    0.987824    0.000000    0.000000    0.000000
H    -1.316048   -1.430091   -0.771204    0.000000    0.000000    0.000000
C     1.278866   -0.686888    0.157259    0.000000    0.000000    0.000000
H     1.302492   -1.160237    1.152237    0.000000    0.000000    0.000000
H     2.142472   -0.019053    0.048594    0.000000    0.000000    0.000000
H     1.339202   -1.500367   -0.583141    0.000000    0.000000    0.000000
O     0.008068    1.294714   -0.188240    0.000000    0.000000    0.000000
10
* Frequency(2)    0.0000
C    -1.287465   -0.687675    0.042671    0.000000    0.000000    0.000000
C     0.000586    0.100291   -0.014923    0.000000    0.000000    0.000000
H    -2.142632   -0.006880   -0.051035    0.000000    0.000000    0.000000
H    -1.358065   -1.249292    0.987824    0.000000    0.000000    0.000000
H    -1.316048   -1.430091   -0.771204    0.000000    0.000000    0.000000
C     1.278866   -0.686888    0.157259    0.000000    0.000000    0.000000
H     1.302492   -1.160237    1.152237    0.000000    0.000000    0.000000
H     2.142472   -0.019053    0.048594    0.000000    0.000000    0.000000
H     1.339202   -1.500367   -0.583141    0.000000    0.000000    0.000000
O     0.008068    1.294714   -0.188240    0.000000    0.000000    0.000000
10
* Frequency(2)    0.0000
C    -1.287465   -0.687675    0.042671    0.000000    0.000000    0.000000
C     0.000586    0.100291   -0.014923    0.000000    0.000000    0.000000
H    -2.142632   -0.006880   -0.051035    0.000000    0.000000    0.000000
H    -1.358065   -1.249292    0.987824    0.000000    0.000000    0.000000
H    -1.316048   -1.430091   -0.771204    0.000000    0.000000    0.000000
C     1.278866   -0.686888    0.157259    0.000000    0.000000    0.000000
H     1.302492   -1.160237    1.152237    0.000000    0.000000    0.000000
H     2.142472   -0.019053    0.048594    0.000000    0.000000    0.000000
H     1.339202   -1.500367   -0.583141    0.000000    0.000000    0.000000
O     0.008068    1.294714   -0.188240    0.000000    0.000000    0.000000
10
* Frequency(2)    0.0000
C    -1.287465   -0.687675    0.042671    0.000000    0.000000    0.000000
C     0.000586    0.100291   -0.014923    0.000000    0.000000    0.000000
H    -2.142632   -0.006880   -0.051035    0.000000    0.000000    0.000000
H    -1.358065   -1.249292    0.987824    0.000000    0.000000    0.000000
H    -1.316048   -1.430091   -0.771204    0.000000    0.000000    0.000000
C     1.278866   -0.686888    0.157259    0.000000    0.000000    0.000000
H     1.302492   -1.160237    1.152237    0.000000    0.000000    0.000000
H     2.142472   -0.019053    0.048594    0.000000    0.000000    0.000000
H     1.339202   -1.500367   -0.583141    0.000000    0.000000    0.000000
O     0.008068    1.294714   -0.188240    0.000000    0.000000    0.000000
10
* Frequency(2)    0.0000
C    -1.287465   -0.687675    0.042671    0.000000    0.000000    0.000000
C     0.000586    0.100291   -0.014923    0.000000    0.000000    0.000000
H    -2.142632   -0.006880   -0.051035    0.000000    0.000000    0.000000
H    -1.358065   -1.249292    0.987824    0.000000    0.000000    0.000000
H    -1.316048   -1.430091   -0.771204    0.000000    0.000000    0.000000
C     1.278866   -0.686888    0.157259    0.000000    0.000000    0.000000
H     1.302492   -1.160237    1.152237    0.000000    0.000000    0.000000
H     2.142472   -0.019053    0.048594    0.000000    0.000000    0.000000
H     1.339202   -1.500367   -0.583141    0.000000    0.000000    0.000000
O     0.008068    1.294714   -0.188240    0.000000    0.000000    0.000000
10
* Frequency(2)    0.0000
C    -1.287465   -0.687675    0.042671    0.000000    0.000000    0.000000
C     0.000586    0.100291   -0.014923    0.000000    0.000000    0.000000
H    -2.142632   -0.006880   -0.051035    0.000000    0.000000    0.000000
H    -1.358065   -1.249292    0.987824    0.000000    0.000000    0.000000
H    -1.316048   -1.430091   -0.771204    0.000000    0.000000    0.000000
C     1.278866   -0.686888    0.157259    0.000000    0.000000    0.000000
H     1.302492   -1.160237    1.152237    0.000000    0.000000    0.000000
H     2.142472   -0.019053    0.048594    0.000000    0.000000    0.000000
H     1.339202   -1.500367   -0.583141    0.000000    0.000000    0.000000
O     0.008068    1.294714   -0.188240    0.000000    0.000000    0.000000
10
* Frequency(2)    0.0000
C    -1.287465   -0.687675    0.042671    0.000000    0.000000    0.000000
C     0.000586    0.100291   -0.014923    0.000000    0.000000    0.000000
H    -2.142632   -0.006880   -0.051035    0.000000    0.000000    0.000000
H    -1.358065   -1.249292    0.987824    0.000000    0.000000    0.000000
H    -1.316048   -1.430091   -0.771204    0.000000    0.000000    0.000000
C     1.278866   -0.686888    0.157259    0.000000    0.000000    0.000000
H     1.302492   -1.160237    1.152237    0.000000    0.000000    0.000000
H     2.142472   -0.019053    0.048594    0.000000    0.000000    0.000000
H     1.339202   -1.500367   -0.583141    0.000000    0.000000    0.000000
O     0.008068    1.294714   -0.188240    0.000000    0.000000    0.000000
10
* Frequency(2)    0.0000
C    -1.287465   -0.687675    0.042671    0.000000    0.000000    0.000000
C     0.000586    0.100291   -0.014923    0.000000    0.000000    0.000000
H    -2.142632   -0.006880   -0.051035    0.000000    0.000000    0.000000
H    -1.358065   -1.249292    0.987824    0.000000    0.000000    0.000000
H    -1.316048   -1.430091   -0.771204    0.000000    0.000000    0.000000
C     1.278866   -0.686888    0.157259    0.000000    0.000000    0.000000
H     1.302492   -1.160237    1.152237    0.000000    0.000000    0.000000
H     2.142472   -0.019053    0.048594    0.000000    0.000000    0.000000
H     1.339202   -1.500367   -0.583141    0.000000    0.000000    0.000000
O     0.008068    1.294714   -0.188240    0.000000    0.000000    0.000000
10
* Frequency(2)    0.0000
C    -1.287465   -0.687675    0.042671    0.000000    0.000000    0.000000
C     0.000586    0.100291   -0.014923    0.000000    0.000000    0.000000
H    -2.142632   -0.006880   -0.051035    0.000000    0.000000    0.000000
H    -1.358065   -1.249292    0.987824    0.000000    0.000000    0.000000
H    -1.316048   -1.430091   -0.771204    0.000000    0.000000    0.000000
C     1.278866   -0.686888    0.157259    0.000000    0.000000    0.000000
H     1.302492   -1.160237    1.152237    0.000000    0.000000    0.000000
H     2.142472   -0.019053    0.048594    0.000000    0.000000    0.000000
H     1.339202   -1.500367   -0.583141    0.000000    0.000000    0.000000
O     0.008068    1.294714   -0.188240    0.000000    0.000000    0.000000
10
* Frequency(2)    0.0000
C    -1.287465   -0.687675    0.042671    0.000000    0.000000    0.000000
C     0.000586    0.100291   -0.014923    0.000000    0.000000    0.000000
H    -2.142632   -0.006880   -0.051035    0.000000    0.000000    0.000000
H    -1.358065   -1.249292    0.987824    0.000000    0.000000    0.000000
H    -1.316048   -1.430091   -0.771204    0.000000    0.000000    0.000000
C     1.278866   -0.686888    0.157259    0.000000    0.000000    0.000000
H     1.302492   -1.160237    1.152237    0.000000    0.000000    0.000000
H     2.142472   -0.019053    0.048594    0.000000    0.000000    0.000000
H     1.339202   -1.500367   -0.583141    0.000000    0.000000    0.000000
O     0.008068    1.294714   -0.188240    0.000000    0.000000    0.000000
10
* Frequency(2)    0.0000
C    -1.287465   -0.687675    0.042671    0.000000    0.000000    0.000000
C     0.000586    0.100291   -0.014923    0.000000    0.000000    0.000000
H    -2.142632   -0.006880   -0.051035    0.000000    0.000000    0.000000
H    -1.358065   -1.249292    0.987824    0.000000    0.000000    0.000000
H    -1.316048   -1.430091   -0.771204    0.000000    0.000000    0.000000
C     1.278866   -0.686888    0.157259    0.000000    0.000000    0.000000
H     1.302492   -1.160237    1.152237    0.000000    0.000000    0.000000
H     2.142472   -0.019053    0.048594    0.000000    0.000000    0.000000
H     1.339202   -1.500367   -0.583141    0.000000    0.000000    0.000000
O     0.008068    1.294714   -0.188240    0.000000    0.000000    0.000000
10
* Frequency(2)    0.0000
C    -1.287465   -0.687675    0.042671    0.000000    0.000000    0.000000
C     0.000586    0.100291   -0.014923    0.000000    0.000000    0.000000
H    -2.142632   -0.006880   -0.051035    0.000000    0.000000    0.000000
H    -1.358065   -1.249292    0.987824    0.000000    0.000000    0.000000
H    -1.316048   -1.430091   -0.771204    0.000000    0.000000    0.000000
C     1.278866   -0.686888    0.157259    0.000000    0.000000    0.000000
H     1.302492   -1.160237    1.152237    0.000000    0.000000    0.000000
H     2.142472   -0.019053    0.048594    0.000000    0.000000    0.000000
H     1.339202   -1.500367   -0.583141    0.000000    0.000000    0.000000
O     0.008068    1.294714   -0.188240    0.000000    0.000000    0.000000
10
* Frequency(2)    0.0000
C    -1.287465   -0.687675    0.042671    0.000000    0.000000    0.000000
C     0.000586    0.100291   -0.014923    0.000000    0.000000    0.000000
H    -2.142632   -0.006880   -0.051035    0.000000    0.000000    0.000000
H    -1.358065   -1.249292    0.987824    0.000000    0.000000    0.000000
H    -1.316048   -1.430091   -0.771204    0.000000    0.000000    0.000000
C     1.278866   -0.686888    0.157259    0.000000    0.000000    0.000000
H     1.302492   -1.160237    1.152237    0.000000    0.000000    0.000000
H     2.142472   -0.019053    0.048594    0.000000    0.000000    0.000000
H     1.339202   -1.500367   -0.583141    0.000000    0.000000    0.000000
O     0.008068    1.294714   -0.188240    0.000000    0.000000    0.000000
10
* Frequency(2)    0.0000
C    -1.287465   -0.687675    0.042671    0.000000    0.000000    0.000000
C     0.000586    0.100291   -0.014923    0.000000    0.000000    0.000000
H    -2.142632   -0.006880   -0.051035    0.000000    0.000000    0.000000
H    -1.358065   -1.249292    0.987824    0.000000    0.000000    0.000000
H    -1.316048   -1.430091   -0.771204    0.000000    0.000000    0.000000
C     1.278866   -0.686888    0.157259    0.000000    0.000000    0.000000
H     1.302492   -1.160237    1.152237    0.000000    0.000000    0.000000
H     2.142472   -0.019053    0.048594    0.000000    0.000000    0.000000
H     1.339202   -1.500367   -0.583141    0.000000    0.000000    0.000000
O     0.008068    1.294714   -0.188240    0.000000    0.000000    0.000000
