10
* (null), Energy   -1000.0000000
C    -1.287465   -0.687675    0.042671   -0.005311    0.014948    0.131831
C     0.000586    0.100291   -0.014923    0.000330    0.000164    0.001353
H    -2.142632   -0.006880   -0.051035    0.024565   -0.018045    0.020925
H    -1.358065   -1.249292    0.987824    0.061401    0.529243   -0.864941
H    -1.316048   -1.430091   -0.771204   -0.024095   -0.692472   -0.739707
C     1.278866   -0.686888    0.157259   -0.006207    0.022380    0.125531
H     1.302492   -1.160237    1.152237   -0.018768    0.428657   -0.872285
H     2.142472   -0.019053    0.048594    0.041145    0.035616    0.011940
H     1.339202   -1.500367   -0.583141    0.049534   -0.731217   -0.648253
O     0.008068    1.294714   -0.188240   -0.000030    0.000093    0.000602
10
* Frequency(27) 3148.9690
C    -1.288069   -0.685977    0.057653   -0.005311    0.014948    0.131831
C     0.000624    0.100309   -0.014769    0.000330    0.000164    0.001353
H    -2.139840   -0.008930   -0.048658    0.024565   -0.018045    0.020925
H    -1.351087   -1.189146    0.889528    0.061401    0.529243   -0.864941
H    -1.318786   -1.508787   -0.855268   -0.024095   -0.692472   -0.739707
C     1.278160   -0.684345    0.171525   -0.006207    0.022380    0.125531
H     1.300359   -1.111523    1.053107   -0.018768    0.428657   -0.872285
H     2.147147   -0.015005    0.049950    0.041145    0.035616    0.011940
H     1.344831   -1.583466   -0.656812    0.049534   -0.731217   -0.648253
O     0.008065    1.294725   -0.188172   -0.000030    0.000093    0.000602
10
* Frequency(27) 3148.9690
C    -1.288607   -0.684462    0.071011   -0.005311    0.014948    0.131831
C     0.000657    0.100326   -0.014632    0.000330    0.000164    0.001353
H    -2.137351   -0.010759   -0.046537    0.024565   -0.018045    0.020925
H    -1.344865   -1.135518    0.801884    0.061401    0.529243   -0.864941
H    -1.321228   -1.578955   -0.930222   -0.024095   -0.692472   -0.739707
C     1.277531   -0.682077    0.184245   -0.006207    0.022380    0.125531
H     1.298457   -1.068087    0.964718   -0.018768    0.428657   -0.872285
H     2.151317   -0.011396    0.051160    0.041145    0.035616    0.011940
H     1.349850   -1.657560   -0.722499    0.049534   -0.731217   -0.648253
O     0.008062    1.294734   -0.188111   -0.000030    0.000093    0.000602
10
* Frequency(27) 3148.9690
C    -1.289021   -0.683295    0.081298   -0.005311    0.014948    0.131831
C     0.000683    0.100339   -0.014526    0.000330    0.000164    0.001353
H    -2.135434   -0.012167   -0.044904    0.024565   -0.018045    0.020925
H    -1.340074   -1.094219    0.734389    0.061401    0.529243   -0.864941
H    -1.323108   -1.632991   -0.987945   -0.024095   -0.692472   -0.739707
C     1.277047   -0.680331    0.194041   -0.006207    0.022380    0.125531
H     1.296993   -1.034637    0.896651   -0.018768    0.428657   -0.872285
H     2.154527   -0.008617    0.052092    0.041145    0.035616    0.011940
H     1.353715   -1.714619   -0.773084    0.049534   -0.731217   -0.648253
O     0.008060    1.294742   -0.188064   -0.000030    0.000093    0.000602
10
* Frequency(27) 3148.9690
C    -1.289267   -0.682604    0.087400   -0.005311    0.014948    0.131831
C     0.000698    0.100347   -0.014464    0.000330    0.000164    0.001353
H    -2.134297   -0.013002   -0.043936    0.024565   -0.018045    0.020925
H    -1.337232   -1.069725    0.694358    0.061401    0.529243   -0.864941
H    -1.324223   -1.665040   -1.022180   -0.024095   -0.692472   -0.739707
C     1.276760   -0.679295    0.199850   -0.006207    0.022380    0.125531
H     1.296124   -1.014798    0.856280   -0.018768    0.428657   -0.872285
H     2.156432   -0.006969    0.052645    0.041145    0.035616    0.011940
H     1.356008   -1.748462   -0.803087    0.049534   -0.731217   -0.648253
O     0.008058    1.294746   -0.188036   -0.000030    0.000093    0.000602
10
* Frequency(27) 3148.9690
C    -1.289317   -0.682461    0.088654   -0.005311    0.014948    0.131831
C     0.000701    0.100348   -0.014451    0.000330    0.000164    0.001353
H    -2.134063   -0.013174   -0.043737    0.024565   -0.018045    0.020925
H    -1.336648   -1.064689    0.686129    0.061401    0.529243   -0.864941
H    -1.324452   -1.671629   -1.029217   -0.024095   -0.692472   -0.739707
C     1.276701   -0.679082    0.201045   -0.006207    0.022380    0.125531
H     1.295946   -1.010720    0.847980   -0.018768    0.428657   -0.872285
H     2.156823   -0.006630    0.052758    0.041145    0.035616    0.011940
H     1.356479   -1.755419   -0.809255    0.049534   -0.731217   -0.648253
O     0.008058    1.294747   -0.188030   -0.000030    0.000093    0.000602
10
* Frequency(27) 3148.9690
C    -1.289167   -0.682884    0.084925   -0.005311    0.014948    0.131831
C     0.000692    0.100344   -0.014489    0.000330    0.000164    0.001353
H    -2.134758   -0.012663   -0.044329    0.024565   -0.018045    0.020925
H    -1.338385   -1.079658    0.710593    0.061401    0.529243   -0.864941
H    -1.323771   -1.652043   -1.008296   -0.024095   -0.692472   -0.739707
C     1.276876   -0.679715    0.197494   -0.006207    0.022380    0.125531
H     1.296476   -1.022844    0.872652   -0.018768    0.428657   -0.872285
H     2.155659   -0.007637    0.052421    0.041145    0.035616    0.011940
H     1.355078   -1.734737   -0.790919    0.049534   -0.731217   -0.648253
O     0.008059    1.294744   -0.188047   -0.000030    0.000093    0.000602
10
* Frequency(27) 3148.9690
C    -1.288833   -0.683826    0.076618   -0.005311    0.014948    0.131831
C     0.000671    0.100333   -0.014574    0.000330    0.000164    0.001353
H    -2.136306   -0.011526   -0.045647    0.024565   -0.018045    0.020925
H    -1.342254   -1.113010    0.765099    0.061401    0.529243   -0.864941
H    -1.322253   -1.608405   -0.961681   -0.024095   -0.692472   -0.739707
C     1.277268   -0.681125    0.189584   -0.006207    0.022380    0.125531
H     1.297659   -1.049857    0.927621   -0.018768    0.428657   -0.872285
H     2.153067   -0.009882    0.051668    0.041145    0.035616    0.011940
H     1.351957   -1.688658   -0.750068    0.049534   -0.731217   -0.648253
O     0.008061    1.294738   -0.188085   -0.000030    0.000093    0.000602
10
* Frequency(27) 3148.9690
C    -1.288350   -0.685185    0.064631   -0.005311    0.014948    0.131831
C     0.000641    0.100318   -0.014698    0.000330    0.000164    0.001353
H    -2.138540   -0.009885   -0.047550    0.024565   -0.018045    0.020925
H    -1.347837   -1.161130    0.843741    0.061401    0.529243   -0.864941
H    -1.320062   -1.545444   -0.894426   -0.024095   -0.692472   -0.739707
C     1.277832   -0.683160    0.178170   -0.006207    0.022380    0.125531
H     1.299365   -1.088831    1.006931   -0.018768    0.428657   -0.872285
H     2.149326   -0.013120    0.050583    0.041145    0.035616    0.011940
H     1.347453   -1.622174   -0.691128    0.049534   -0.731217   -0.648253
O     0.008063    1.294730   -0.188140   -0.000030    0.000093    0.000602
10
* Frequency(27) 3148.9690
C    -1.287771   -0.686814    0.050265   -0.005311    0.014948    0.131831
C     0.000605    0.100300   -0.014845    0.000330    0.000164    0.001353
H    -2.141217   -0.007919   -0.049830    0.024565   -0.018045    0.020925
H    -1.354528   -1.218803    0.937997    0.061401    0.529243   -0.864941
H    -1.317436   -1.469983   -0.813817   -0.024095   -0.692472   -0.739707
C     1.278508   -0.685599    0.164491   -0.006207    0.022380    0.125531
H     1.301411   -1.135543    1.101987   -0.018768    0.428657   -0.872285
H     2.144842   -0.017001    0.049281    0.041145    0.035616    0.011940
H     1.342055   -1.542491   -0.620486    0.049534   -0.731217   -0.648253
O     0.008067    1.294720   -0.188206   -0.000030    0.000093    0.000602
10
* Frequency(27) 3148.9690
C    -1.287159   -0.688536    0.035076   -0.005311    0.014948    0.131831
C     0.000567    0.100281   -0.015001    0.000330    0.000164    0.001353
H    -2.144047   -0.005840   -0.052241    0.024565   -0.018045    0.020925
H    -1.361602   -1.279780    1.037652    0.061401    0.529243   -0.864941
H    -1.314660   -1.390199   -0.728591   -0.024095   -0.692472   -0.739707
C     1.279223   -0.688177    0.150027   -0.006207    0.022380    0.125531
H     1.303573   -1.184931    1.202488   -0.018768    0.428657   -0.872285
H     2.140101   -0.021105    0.047906    0.041145    0.035616    0.011940
H     1.336348   -1.458243   -0.545796    0.049534   -0.731217   -0.648253
O     0.008070    1.294709   -0.188275   -0.000030    0.000093    0.000602
10
* Frequency(27) 3148.9690
C    -1.286580   -0.690165    0.020710   -0.005311    0.014948    0.131831
C     0.000531    0.100263   -0.015148    0.000330    0.000164    0.001353
H    -2.146724   -0.003874   -0.054521    0.024565   -0.018045    0.020925
H    -1.368293   -1.337454    1.131907    0.061401    0.529243   -0.864941
H    -1.312034   -1.314738   -0.647983   -0.024095   -0.692472   -0.739707
C     1.279900   -0.690616    0.136348   -0.006207    0.022380    0.125531
H     1.305618   -1.231644    1.297544   -0.018768    0.428657   -0.872285
H     2.135618   -0.024986    0.046605    0.041145    0.035616    0.011940
H     1.330950   -1.378559   -0.475154    0.049534   -0.731217   -0.648253
O     0.008073    1.294699   -0.188341   -0.000030    0.000093    0.000602
10
* Frequency(27) 3148.9690
C    -1.286097   -0.691525    0.008724   -0.005311    0.014948    0.131831
C     0.000501    0.100248   -0.015271    0.000330    0.000164    0.001353
H    -2.148957   -0.002233   -0.056424    0.024565   -0.018045    0.020925
H    -1.373876   -1.385573    1.210549    0.061401    0.529243   -0.864941
H    -1.309843   -1.251777   -0.580727   -0.024095   -0.692472   -0.739707
C     1.280464   -0.692651    0.124934   -0.006207    0.022380    0.125531
H     1.307325   -1.270618    1.376853   -0.018768    0.428657   -0.872285
H     2.131877   -0.028224    0.045519    0.041145    0.035616    0.011940
H     1.326447   -1.312076   -0.416214    0.049534   -0.731217   -0.648253
O     0.008076    1.294691   -0.188395   -0.000030    0.000093    0.000602
10
* Frequency(27) 3148.9690
C    -1.285763   -0.692466    0.000416   -0.005311    0.014948    0.131831
C     0.000480    0.100238   -0.015357    0.000330    0.000164    0.001353
H    -2.150505   -0.001096   -0.057742    0.024565   -0.018045    0.020925
H    -1.377745   -1.418925    1.265055    0.061401    0.529243   -0.864941
H    -1.308325   -1.208140   -0.534113   -0.024095   -0.692472   -0.739707
C     1.280855   -0.694061    0.117024   -0.006207    0.022380    0.125531
H     1.308507   -1.297631    1.431822   -0.018768    0.428657   -0.872285
H     2.129284   -0.030469    0.044767    0.041145    0.035616    0.011940
H     1.323325   -1.265997   -0.375363    0.049534   -0.731217   -0.648253
O     0.008078    1.294685   -0.188433   -0.000030    0.000093    0.000602
10
* Frequency(27) 3148.9690
C    -1.285612   -0.692889   -0.003313   -0.005311    0.014948    0.131831
C     0.000471    0.100233   -0.015395    0.000330    0.000164    0.001353
H    -2.151200   -0.000586   -0.058334    0.024565   -0.018045    0.020925
H    -1.379482   -1.433894    1.289519    0.061401    0.529243   -0.864941
H    -1.307643   -1.188554   -0.513191   -0.024095   -0.692472   -0.739707
C     1.281031   -0.694694    0.113473   -0.006207    0.022380    0.125531
H     1.309038   -1.309755    1.456494   -0.018768    0.428657   -0.872285
H     2.128120   -0.031476    0.044429    0.041145    0.035616    0.011940
H     1.321924   -1.245315   -0.357027    0.049534   -0.731217   -0.648253
O     0.008079    1.294682   -0.188450   -0.000030    0.000093    0.000602
10
* Frequency(27) 3148.9690
C    -1.285663   -0.692747   -0.002058   -0.005311    0.014948    0.131831
C     0.000474    0.100235   -0.015382    0.000330    0.000164    0.001353
H    -2.150966   -0.000757   -0.058135    0.024565   -0.018045    0.020925
H    -1.378898   -1.428859    1.281290    0.061401    0.529243   -0.864941
H    -1.307873   -1.195142   -0.520229   -0.024095   -0.692472   -0.739707
C     1.280972   -0.694481    0.114668   -0.006207    0.022380    0.125531
H     1.308859   -1.305676    1.448195   -0.018768    0.428657   -0.872285
H     2.128511   -0.031137    0.044542    0.041145    0.035616    0.011940
H     1.322395   -1.252272   -0.363195    0.049534   -0.731217   -0.648253
O     0.008078    1.294683   -0.188445   -0.000030    0.000093    0.000602
10
* Frequency(27) 3148.9690
C    -1.285909   -0.692055    0.004043   -0.005311    0.014948    0.131831
C     0.000489    0.100243   -0.015319    0.000330    0.000164    0.001353
H    -2.149829   -0.001592   -0.057167    0.024565   -0.018045    0.020925
H    -1.376056   -1.404364    1.241259    0.061401    0.529243   -0.864941
H    -1.308988   -1.227191   -0.554464   -0.024095   -0.692472   -0.739707
C     1.280685   -0.693446    0.120477   -0.006207    0.022380    0.125531
H     1.307991   -1.285837    1.407824   -0.018768    0.428657   -0.872285
H     2.130416   -0.029489    0.045095    0.041145    0.035616    0.011940
H     1.324688   -1.286114   -0.393198    0.049534   -0.731217   -0.648253
O     0.008077    1.294687   -0.188417   -0.000030    0.000093    0.000602
10
* Frequency(27) 3148.9690
C    -1.286323   -0.690889    0.014330   -0.005311    0.014948    0.131831
C     0.000515    0.100255   -0.015214    0.000330    0.000164    0.001353
H    -2.147913   -0.003000   -0.055534    0.024565   -0.018045    0.020925
H    -1.371265   -1.363065    1.173764    0.061401    0.529243   -0.864941
H    -1.310868   -1.281228   -0.612186   -0.024095   -0.692472   -0.739707
C     1.280200   -0.691699    0.130273   -0.006207    0.022380    0.125531
H     1.306526   -1.252388    1.339756   -0.018768    0.428657   -0.872285
H     2.133626   -0.026709    0.046027    0.041145    0.035616    0.011940
H     1.328553   -1.343174   -0.443783    0.049534   -0.731217   -0.648253
O     0.008075    1.294695   -0.188370   -0.000030    0.000093    0.000602
10
* Frequency(27) 3148.9690
C    -1.286861   -0.689374    0.027689   -0.005311    0.014948    0.131831
C     0.000548    0.100272   -0.015077    0.000330    0.000164    0.001353
H    -2.145423   -0.004829   -0.053413    0.024565   -0.018045    0.020925
H    -1.365043   -1.309437    1.086120    0.061401    0.529243   -0.864941
H    -1.313310   -1.351395   -0.687140   -0.024095   -0.692472   -0.739707
C     1.279571   -0.689432    0.142993   -0.006207    0.022380    0.125531
H     1.304625   -1.208952    1.251368   -0.018768    0.428657   -0.872285
H     2.137796   -0.023101    0.047237    0.041145    0.035616    0.011940
H     1.333572   -1.417268   -0.509470    0.049534   -0.731217   -0.648253
O     0.008072    1.294704   -0.188309   -0.000030    0.000093    0.000602
10
* Frequency(27) 3148.9690
C    -1.287465   -0.687675    0.042671   -0.005311    0.014948    0.131831
C     0.000586    0.100291   -0.014923    0.000330    0.000164    0.001353
H    -2.142632   -0.006880   -0.051035    0.024565   -0.018045    0.020925
H    -1.358065   -1.249292    0.987824    0.061401    0.529243   -0.864941
H    -1.316048   -1.430091   -0.771204   -0.024095   -0.692472   -0.739707
C     1.278866   -0.686888    0.157259   -0.006207    0.022380    0.125531
H     1.302492   -1.160237    1.152237   -0.018768    0.428657   -0.872285
H     2.142472   -0.019053    0.048594    0.041145    0.035616    0.011940
H     1.339202   -1.500367   -0.583141    0.049534   -0.731217   -0.648253
O     0.008068    1.294714   -0.188240   -0.000030    0.000093    0.000602
