10
* (null), Energy   -1000.0000000
C    -1.287465   -0.687675    0.042671   -0.045577    0.050458   -0.007267
C     0.000586    0.100291   -0.014923   -0.051140    0.000620    0.003021
H    -2.142632   -0.006880   -0.051035    0.349738    0.521221   -0.038209
H    -1.358065   -1.249292    0.987824    0.204147   -0.751071   -0.451290
H    -1.316048   -1.430091   -0.771204    0.178536   -0.645770    0.604295
C     1.278866   -0.686888    0.157259   -0.045245   -0.049215    0.008602
H     1.302492   -1.160237    1.152237    0.179103    0.779356    0.384478
H     2.142472   -0.019053    0.048594    0.339090   -0.508916    0.104182
H     1.339202   -1.500367   -0.583141    0.213416    0.579587   -0.644509
O     0.008068    1.294714   -0.188240    0.014336    0.000214   -0.000684
10
* Frequency(19) 1423.6573
C    -1.292645   -0.681941    0.041845   -0.045577    0.050458   -0.007267
C    -0.005226    0.100361   -0.014580   -0.051140    0.000620    0.003021
H    -2.102886    0.052355   -0.055378    0.349738    0.521221   -0.038209
H    -1.334865   -1.334647    0.936537    0.204147   -0.751071   -0.451290
H    -1.295758   -1.503480   -0.702529    0.178536   -0.645770    0.604295
C     1.273724   -0.692481    0.158237   -0.045245   -0.049215    0.008602
H     1.322846   -1.071668    1.195931    0.179103    0.779356    0.384478
H     2.181007   -0.076889    0.060433    0.339090   -0.508916    0.104182
H     1.363455   -1.434500   -0.656386    0.213416    0.579587   -0.644509
O     0.009698    1.294739   -0.188318    0.014336    0.000214   -0.000684
10
* Frequency(19) 1423.6573
C    -1.297263   -0.676828    0.041109   -0.045577    0.050458   -0.007267
C    -0.010408    0.100424   -0.014273   -0.051140    0.000620    0.003021
H    -2.067447    0.105170   -0.059249    0.349738    0.521221   -0.038209
H    -1.314179   -1.410753    0.890808    0.204147   -0.751071   -0.451290
H    -1.277667   -1.568915   -0.641296    0.178536   -0.645770    0.604295
C     1.269139   -0.697468    0.159108   -0.045245   -0.049215    0.008602
H     1.340994   -0.992696    1.234890    0.179103    0.779356    0.384478
H     2.215367   -0.128457    0.070990    0.339090   -0.508916    0.104182
H     1.385081   -1.375770   -0.721694    0.213416    0.579587   -0.644509
O     0.011150    1.294760   -0.188387    0.014336    0.000214   -0.000684
10
* Frequency(19) 1423.6573
C    -1.300819   -0.672891    0.040541   -0.045577    0.050458   -0.007267
C    -0.014398    0.100473   -0.014038   -0.051140    0.000620    0.003021
H    -2.040156    0.145843   -0.062231    0.349738    0.521221   -0.038209
H    -1.298248   -1.469362    0.855592    0.204147   -0.751071   -0.451290
H    -1.263735   -1.619307   -0.594141    0.178536   -0.645770    0.604295
C     1.265609   -0.701309    0.159780   -0.045245   -0.049215    0.008602
H     1.354970   -0.931880    1.264892    0.179103    0.779356    0.384478
H     2.241828   -0.168170    0.079120    0.339090   -0.508916    0.104182
H     1.401734   -1.330543   -0.771987    0.213416    0.579587   -0.644509
O     0.012269    1.294777   -0.188441    0.014336    0.000214   -0.000684
10
* Frequency(19) 1423.6573
C    -1.302929   -0.670556    0.040205   -0.045577    0.050458   -0.007267
C    -0.016765    0.100501   -0.013898   -0.051140    0.000620    0.003021
H    -2.023969    0.169966   -0.063999    0.349738    0.521221   -0.038209
H    -1.288800   -1.504123    0.834706    0.204147   -0.751071   -0.451290
H    -1.255473   -1.649195   -0.566173    0.178536   -0.645770    0.604295
C     1.263515   -0.703586    0.160178   -0.045245   -0.049215    0.008602
H     1.363259   -0.895810    1.282687    0.179103    0.779356    0.384478
H     2.257522   -0.191723    0.083942    0.339090   -0.508916    0.104182
H     1.411612   -1.303718   -0.801817    0.213416    0.579587   -0.644509
O     0.012932    1.294787   -0.188473    0.014336    0.000214   -0.000684
10
* Frequency(19) 1423.6573
C    -1.303362   -0.670075    0.040136   -0.045577    0.050458   -0.007267
C    -0.017252    0.100507   -0.013869   -0.051140    0.000620    0.003021
H    -2.020641    0.174925   -0.064363    0.349738    0.521221   -0.038209
H    -1.286858   -1.511269    0.830412    0.204147   -0.751071   -0.451290
H    -1.253774   -1.655339   -0.560423    0.178536   -0.645770    0.604295
C     1.263084   -0.704055    0.160260   -0.045245   -0.049215    0.008602
H     1.364964   -0.888394    1.286345    0.179103    0.779356    0.384478
H     2.260748   -0.196565    0.084933    0.339090   -0.508916    0.104182
H     1.413642   -1.298204   -0.807949    0.213416    0.579587   -0.644509
O     0.013069    1.294789   -0.188479    0.014336    0.000214   -0.000684
10
* Frequency(19) 1423.6573
C    -1.302073   -0.671503    0.040342   -0.045577    0.050458   -0.007267
C    -0.015805    0.100490   -0.013955   -0.051140    0.000620    0.003021
H    -2.030533    0.160183   -0.063282    0.349738    0.521221   -0.038209
H    -1.292632   -1.490025    0.843176    0.204147   -0.751071   -0.451290
H    -1.258824   -1.637074   -0.577515    0.178536   -0.645770    0.604295
C     1.264364   -0.702663    0.160016   -0.045245   -0.049215    0.008602
H     1.359898   -0.910438    1.275470    0.179103    0.779356    0.384478
H     2.251157   -0.182171    0.081986    0.339090   -0.508916    0.104182
H     1.407606   -1.314597   -0.789719    0.213416    0.579587   -0.644509
O     0.012663    1.294783   -0.188460    0.014336    0.000214   -0.000684
10
* Frequency(19) 1423.6573
C    -1.299201   -0.674682    0.040799   -0.045577    0.050458   -0.007267
C    -0.012583    0.100451   -0.014145   -0.051140    0.000620    0.003021
H    -2.052573    0.127337   -0.060874    0.349738    0.521221   -0.038209
H    -1.305496   -1.442695    0.871615    0.204147   -0.751071   -0.451290
H    -1.270074   -1.596379   -0.615596    0.178536   -0.645770    0.604295
C     1.267215   -0.699561    0.159474   -0.045245   -0.049215    0.008602
H     1.348611   -0.959551    1.251241    0.179103    0.779356    0.384478
H     2.229788   -0.150101    0.075421    0.339090   -0.508916    0.104182
H     1.394157   -1.351121   -0.749104    0.213416    0.579587   -0.644509
O     0.011760    1.294770   -0.188417    0.014336    0.000214   -0.000684
10
* Frequency(19) 1423.6573
C    -1.295057   -0.679270    0.041460   -0.045577    0.050458   -0.007267
C    -0.007933    0.100394   -0.014420   -0.051140    0.000620    0.003021
H    -2.084372    0.079946   -0.057400    0.349738    0.521221   -0.038209
H    -1.324058   -1.374406    0.912648    0.204147   -0.751071   -0.451290
H    -1.286307   -1.537665   -0.670540    0.178536   -0.645770    0.604295
C     1.271329   -0.695087    0.158692   -0.045245   -0.049215    0.008602
H     1.332327   -1.030411    1.216284    0.179103    0.779356    0.384478
H     2.198958   -0.103829    0.065948    0.339090   -0.508916    0.104182
H     1.374753   -1.403818   -0.690504    0.213416    0.579587   -0.644509
O     0.010456    1.294750   -0.188354    0.014336    0.000214   -0.000684
10
* Frequency(19) 1423.6573
C    -1.290091   -0.684769    0.042252   -0.045577    0.050458   -0.007267
C    -0.002360    0.100327   -0.014749   -0.051140    0.000620    0.003021
H    -2.122484    0.023147   -0.053237    0.349738    0.521221   -0.038209
H    -1.346305   -1.292559    0.961826    0.204147   -0.751071   -0.451290
H    -1.305763   -1.467293   -0.736392    0.178536   -0.645770    0.604295
C     1.276259   -0.689723    0.157755   -0.045245   -0.049215    0.008602
H     1.312810   -1.115340    1.174386    0.179103    0.779356    0.384478
H     2.162006   -0.048371    0.054595    0.339090   -0.508916    0.104182
H     1.351496   -1.466978   -0.620270    0.213416    0.579587   -0.644509
O     0.008894    1.294727   -0.188280    0.014336    0.000214   -0.000684
10
* Frequency(19) 1423.6573
C    -1.284839   -0.690582    0.043089   -0.045577    0.050458   -0.007267
C     0.003532    0.100255   -0.015097   -0.051140    0.000620    0.003021
H    -2.162779   -0.036906   -0.048834    0.349738    0.521221   -0.038209
H    -1.369826   -1.206024    1.013822    0.204147   -0.751071   -0.451290
H    -1.326333   -1.392890   -0.806017    0.178536   -0.645770    0.604295
C     1.281472   -0.684053    0.156763   -0.045245   -0.049215    0.008602
H     1.292174   -1.205134    1.130088    0.179103    0.779356    0.384478
H     2.122937    0.010265    0.042592    0.339090   -0.508916    0.104182
H     1.326907   -1.533756   -0.546012    0.213416    0.579587   -0.644509
O     0.007243    1.294702   -0.188201    0.014336    0.000214   -0.000684
10
* Frequency(19) 1423.6573
C    -1.279873   -0.696081    0.043881   -0.045577    0.050458   -0.007267
C     0.009105    0.100187   -0.015426   -0.051140    0.000620    0.003021
H    -2.200892   -0.093705   -0.044671    0.349738    0.521221   -0.038209
H    -1.392072   -1.124177    1.063001    0.204147   -0.751071   -0.451290
H    -1.345789   -1.322518   -0.871869    0.178536   -0.645770    0.604295
C     1.286403   -0.678690    0.155826   -0.045245   -0.049215    0.008602
H     1.272657   -1.290064    1.088190    0.179103    0.779356    0.384478
H     2.085985    0.065723    0.031239    0.339090   -0.508916    0.104182
H     1.303650   -1.596915   -0.475778    0.213416    0.579587   -0.644509
O     0.005680    1.294679   -0.188126    0.014336    0.000214   -0.000684
10
* Frequency(19) 1423.6573
C    -1.275729   -0.700668    0.044542   -0.045577    0.050458   -0.007267
C     0.013755    0.100131   -0.015701   -0.051140    0.000620    0.003021
H    -2.232690   -0.141096   -0.041197    0.349738    0.521221   -0.038209
H    -1.410634   -1.055888    1.104033    0.204147   -0.751071   -0.451290
H    -1.362022   -1.263803   -0.926812    0.178536   -0.645770    0.604295
C     1.290517   -0.674215    0.155044   -0.045245   -0.049215    0.008602
H     1.256372   -1.360924    1.053233    0.179103    0.779356    0.384478
H     2.055155    0.111995    0.021766    0.339090   -0.508916    0.104182
H     1.284246   -1.649612   -0.417178    0.213416    0.579587   -0.644509
O     0.004377    1.294659   -0.188064    0.014336    0.000214   -0.000684
10
* Frequency(19) 1423.6573
C    -1.272857   -0.703848    0.045000   -0.045577    0.050458   -0.007267
C     0.016977    0.100092   -0.015891   -0.051140    0.000620    0.003021
H    -2.254730   -0.173942   -0.038789    0.349738    0.521221   -0.038209
H    -1.423498   -1.008558    1.132472    0.204147   -0.751071   -0.451290
H    -1.373272   -1.223109   -0.964893    0.178536   -0.645770    0.604295
C     1.293368   -0.671114    0.154502   -0.045245   -0.049215    0.008602
H     1.245086   -1.410037    1.029004    0.179103    0.779356    0.384478
H     2.033786    0.144065    0.015201    0.339090   -0.508916    0.104182
H     1.270797   -1.686137   -0.376562    0.213416    0.579587   -0.644509
O     0.003474    1.294646   -0.188021    0.014336    0.000214   -0.000684
10
* Frequency(19) 1423.6573
C    -1.271568   -0.705275    0.045205   -0.045577    0.050458   -0.007267
C     0.018424    0.100074   -0.015977   -0.051140    0.000620    0.003021
H    -2.264622   -0.188684   -0.037708    0.349738    0.521221   -0.038209
H    -1.429273   -0.987315    1.145236    0.204147   -0.751071   -0.451290
H    -1.378322   -1.204844   -0.981985    0.178536   -0.645770    0.604295
C     1.294648   -0.669722    0.154258   -0.045245   -0.049215    0.008602
H     1.240020   -1.432080    1.018130    0.179103    0.779356    0.384478
H     2.024195    0.158459    0.012254    0.339090   -0.508916    0.104182
H     1.264761   -1.702530   -0.358333    0.213416    0.579587   -0.644509
O     0.003068    1.294640   -0.188002    0.014336    0.000214   -0.000684
10
* Frequency(19) 1423.6573
C    -1.272001   -0.704795    0.045136   -0.045577    0.050458   -0.007267
C     0.017937    0.100080   -0.015948   -0.051140    0.000620    0.003021
H    -2.261294   -0.183725   -0.038072    0.349738    0.521221   -0.038209
H    -1.427330   -0.994461    1.140942    0.204147   -0.751071   -0.451290
H    -1.376623   -1.210988   -0.976236    0.178536   -0.645770    0.604295
C     1.294217   -0.670190    0.154340   -0.045245   -0.049215    0.008602
H     1.241724   -1.424665    1.021788    0.179103    0.779356    0.384478
H     2.027422    0.153617    0.013246    0.339090   -0.508916    0.104182
H     1.266792   -1.697015   -0.364465    0.213416    0.579587   -0.644509
O     0.003204    1.294642   -0.188008    0.014336    0.000214   -0.000684
10
* Frequency(19) 1423.6573
C    -1.274111   -0.702460    0.044800   -0.045577    0.050458   -0.007267
C     0.015570    0.100109   -0.015808   -0.051140    0.000620    0.003021
H    -2.245108   -0.159602   -0.039840    0.349738    0.521221   -0.038209
H    -1.417882   -1.029222    1.120056    0.204147   -0.751071   -0.451290
H    -1.368360   -1.240875   -0.948268    0.178536   -0.645770    0.604295
C     1.292123   -0.672468    0.154738   -0.045245   -0.049215    0.008602
H     1.250013   -1.388595    1.039582    0.179103    0.779356    0.384478
H     2.043115    0.130064    0.018067    0.339090   -0.508916    0.104182
H     1.276669   -1.670191   -0.394294    0.213416    0.579587   -0.644509
O     0.003868    1.294652   -0.188040    0.014336    0.000214   -0.000684
10
* Frequency(19) 1423.6573
C    -1.277667   -0.698522    0.044233   -0.045577    0.050458   -0.007267
C     0.011580    0.100157   -0.015572   -0.051140    0.000620    0.003021
H    -2.217817   -0.118929   -0.042822    0.349738    0.521221   -0.038209
H    -1.401951   -1.087831    1.084840    0.204147   -0.751071   -0.451290
H    -1.354429   -1.291267   -0.901112    0.178536   -0.645770    0.604295
C     1.288592   -0.676308    0.155410   -0.045245   -0.049215    0.008602
H     1.263989   -1.327779    1.069584    0.179103    0.779356    0.384478
H     2.069576    0.090351    0.026197    0.339090   -0.508916    0.104182
H     1.293323   -1.624963   -0.444588    0.213416    0.579587   -0.644509
O     0.004987    1.294668   -0.188093    0.014336    0.000214   -0.000684
10
* Frequency(19) 1423.6573
C    -1.282285   -0.693410    0.043496   -0.045577    0.050458   -0.007267
C     0.006398    0.100220   -0.015266   -0.051140    0.000620    0.003021
H    -2.182378   -0.066114   -0.046693    0.349738    0.521221   -0.038209
H    -1.381265   -1.163936    1.039111    0.204147   -0.751071   -0.451290
H    -1.336338   -1.356703   -0.839879    0.178536   -0.645770    0.604295
C     1.284008   -0.681295    0.156281   -0.045245   -0.049215    0.008602
H     1.282138   -1.248807    1.108543    0.179103    0.779356    0.384478
H     2.103936    0.038783    0.036754    0.339090   -0.508916    0.104182
H     1.314948   -1.566234   -0.509896    0.213416    0.579587   -0.644509
O     0.006439    1.294690   -0.188163    0.014336    0.000214   -0.000684
10
* Frequency(19) 1423.6573
C    -1.287465   -0.687675    0.042671   -0.045577    0.050458   -0.007267
C     0.000586    0.100291   -0.014923   -0.051140    0.000620    0.003021
H    -2.142632   -0.006880   -0.051035    0.349738    0.521221   -0.038209
H    -1.358065   -1.249292    0.987824    0.204147   -0.751071   -0.451290
H    -1.316048   -1.430091   -0.771204    0.178536   -0.645770    0.604295
C     1.278866   -0.686888    0.157259   -0.045245   -0.049215    0.008602
H     1.302492   -1.160237    1.152237    0.179103    0.779356    0.384478
H     2.142472   -0.019053    0.048594    0.339090   -0.508916    0.104182
H     1.339202   -1.500367   -0.583141    0.213416    0.579587   -0.644509
O     0.008068    1.294714   -0.188240    0.014336    0.000214   -0.000684
