10
* (null), Energy   -1000.0000000
C    -1.287465   -0.687675    0.042671    0.096394   -0.129713    0.019001
C     0.000586    0.100291   -0.014923    0.000081   -0.006104    0.000862
H    -2.142632   -0.006880   -0.051035   -1.199617    0.957877   -0.131171
H    -1.358065   -1.249292    0.987824    0.042845    0.271664   -0.486722
H    -1.316048   -1.430091   -0.771204    0.020742    0.333983    0.389826
C     1.278866   -0.686888    0.157259   -0.057437   -0.075499    0.010343
H     1.302492   -1.160237    1.152237   -0.011365    0.118796   -0.271735
H     2.142472   -0.019053    0.048594    0.707435    0.548553   -0.089846
H     1.339202   -1.500367   -0.583141   -0.023513    0.245919    0.235634
O     0.008068    1.294714   -0.188240   -0.000107    0.002594   -0.000373
10
* Frequency(29) 3198.0321
C    -1.276510   -0.702417    0.044830    0.096394   -0.129713    0.019001
C     0.000595    0.099597   -0.014825    0.000081   -0.006104    0.000862
H    -2.278962    0.101978   -0.065942   -1.199617    0.957877   -0.131171
H    -1.353196   -1.218418    0.932511    0.042845    0.271664   -0.486722
H    -1.313691   -1.392136   -0.726902    0.020742    0.333983    0.389826
C     1.272338   -0.695468    0.158434   -0.057437   -0.075499    0.010343
H     1.301200   -1.146737    1.121356   -0.011365    0.118796   -0.271735
H     2.222868    0.043287    0.038383    0.707435    0.548553   -0.089846
H     1.336530   -1.472419   -0.556362   -0.023513    0.245919    0.235634
O     0.008056    1.295009   -0.188283   -0.000107    0.002594   -0.000373
10
* Frequency(29) 3198.0321
C    -1.266743   -0.715560    0.046755    0.096394   -0.129713    0.019001
C     0.000604    0.098979   -0.014738    0.000081   -0.006104    0.000862
H    -2.400519    0.199040   -0.079234   -1.199617    0.957877   -0.131171
H    -1.348855   -1.190891    0.883191    0.042845    0.271664   -0.486722
H    -1.311589   -1.358293   -0.687402    0.020742    0.333983    0.389826
C     1.266518   -0.703118    0.159483   -0.057437   -0.075499    0.010343
H     1.300049   -1.134699    1.093821   -0.011365    0.118796   -0.271735
H     2.294552    0.098872    0.029279    0.707435    0.548553   -0.089846
H     1.334147   -1.447501   -0.532486   -0.023513    0.245919    0.235634
O     0.008045    1.295272   -0.188320   -0.000107    0.002594   -0.000373
10
* Frequency(29) 3198.0321
C    -1.259221   -0.725682    0.048238    0.096394   -0.129713    0.019001
C     0.000610    0.098502   -0.014670    0.000081   -0.006104    0.000862
H    -2.494129    0.273786   -0.089470   -1.199617    0.957877   -0.131171
H    -1.345511   -1.169692    0.845211    0.042845    0.271664   -0.486722
H    -1.309970   -1.332232   -0.656982    0.020742    0.333983    0.389826
C     1.262036   -0.709010    0.160290   -0.057437   -0.075499    0.010343
H     1.299162   -1.125429    1.072616   -0.011365    0.118796   -0.271735
H     2.349756    0.141678    0.022268    0.707435    0.548553   -0.089846
H     1.332312   -1.428311   -0.514098   -0.023513    0.245919    0.235634
O     0.008037    1.295475   -0.188350   -0.000107    0.002594   -0.000373
10
* Frequency(29) 3198.0321
C    -1.254759   -0.731686    0.049118    0.096394   -0.129713    0.019001
C     0.000614    0.098220   -0.014630    0.000081   -0.006104    0.000862
H    -2.549650    0.318119   -0.095541   -1.199617    0.957877   -0.131171
H    -1.343528   -1.157119    0.822684    0.042845    0.271664   -0.486722
H    -1.309010   -1.316774   -0.638940    0.020742    0.333983    0.389826
C     1.259378   -0.712504    0.160768   -0.057437   -0.075499    0.010343
H     1.298636   -1.119931    1.060040   -0.011365    0.118796   -0.271735
H     2.382497    0.167066    0.018110    0.707435    0.548553   -0.089846
H     1.331224   -1.416929   -0.503193   -0.023513    0.245919    0.235634
O     0.008032    1.295595   -0.188367   -0.000107    0.002594   -0.000373
10
* Frequency(29) 3198.0321
C    -1.253842   -0.732920    0.049298    0.096394   -0.129713    0.019001
C     0.000614    0.098162   -0.014622    0.000081   -0.006104    0.000862
H    -2.561064    0.327232   -0.096789   -1.199617    0.957877   -0.131171
H    -1.343121   -1.154534    0.818053    0.042845    0.271664   -0.486722
H    -1.308813   -1.313597   -0.635231    0.020742    0.333983    0.389826
C     1.258831   -0.713222    0.160867   -0.057437   -0.075499    0.010343
H     1.298528   -1.118801    1.057455   -0.011365    0.118796   -0.271735
H     2.389228    0.172285    0.017255    0.707435    0.548553   -0.089846
H     1.331000   -1.414589   -0.500951   -0.023513    0.245919    0.235634
O     0.008031    1.295619   -0.188370   -0.000107    0.002594   -0.000373
10
* Frequency(29) 3198.0321
C    -1.256569   -0.729251    0.048761    0.096394   -0.129713    0.019001
C     0.000612    0.098334   -0.014647    0.000081   -0.006104    0.000862
H    -2.527134    0.300140   -0.093079   -1.199617    0.957877   -0.131171
H    -1.344332   -1.162218    0.831820    0.042845    0.271664   -0.486722
H    -1.309400   -1.323043   -0.646257    0.020742    0.333983    0.389826
C     1.260456   -0.711087    0.160574   -0.057437   -0.075499    0.010343
H     1.298849   -1.122161    1.065140   -0.011365    0.118796   -0.271735
H     2.369219    0.156770    0.019796    0.707435    0.548553   -0.089846
H     1.331665   -1.421545   -0.507615   -0.023513    0.245919    0.235634
O     0.008034    1.295546   -0.188360   -0.000107    0.002594   -0.000373
10
* Frequency(29) 3198.0321
C    -1.262643   -0.721077    0.047564    0.096394   -0.129713    0.019001
C     0.000607    0.098719   -0.014701    0.000081   -0.006104    0.000862
H    -2.451537    0.239777   -0.084813   -1.199617    0.957877   -0.131171
H    -1.347032   -1.179337    0.862492    0.042845    0.271664   -0.486722
H    -1.310707   -1.344090   -0.670823    0.020742    0.333983    0.389826
C     1.264075   -0.706329    0.159922   -0.057437   -0.075499    0.010343
H     1.299565   -1.129647    1.082264   -0.011365    0.118796   -0.271735
H     2.324638    0.122201    0.025458    0.707435    0.548553   -0.089846
H     1.333147   -1.437042   -0.522464   -0.023513    0.245919    0.235634
O     0.008041    1.295382   -0.188336   -0.000107    0.002594   -0.000373
10
* Frequency(29) 3198.0321
C    -1.271407   -0.709283    0.045836    0.096394   -0.129713    0.019001
C     0.000600    0.099274   -0.014779    0.000081   -0.006104    0.000862
H    -2.342466    0.152685   -0.072886   -1.199617    0.957877   -0.131171
H    -1.350928   -1.204037    0.906745    0.042845    0.271664   -0.486722
H    -1.312593   -1.374456   -0.706266    0.020742    0.333983    0.389826
C     1.269298   -0.699465    0.158982   -0.057437   -0.075499    0.010343
H     1.300599   -1.140448    1.106971   -0.011365    0.118796   -0.271735
H     2.260317    0.072326    0.033627    0.707435    0.548553   -0.089846
H     1.335285   -1.459401   -0.543889   -0.023513    0.245919    0.235634
O     0.008051    1.295147   -0.188302   -0.000107    0.002594   -0.000373
10
* Frequency(29) 3198.0321
C    -1.281912   -0.695148    0.043765    0.096394   -0.129713    0.019001
C     0.000591    0.099939   -0.014873    0.000081   -0.006104    0.000862
H    -2.211739    0.048302   -0.058592   -1.199617    0.957877   -0.131171
H    -1.355597   -1.233642    0.959785    0.042845    0.271664   -0.486722
H    -1.314853   -1.410851   -0.748747    0.020742    0.333983    0.389826
C     1.275557   -0.691238    0.157855   -0.057437   -0.075499    0.010343
H     1.301837   -1.153394    1.136583   -0.011365    0.118796   -0.271735
H     2.183226    0.012548    0.043418    0.707435    0.548553   -0.089846
H     1.337847   -1.486200   -0.569567   -0.023513    0.245919    0.235634
O     0.008062    1.294864   -0.188262   -0.000107    0.002594   -0.000373
10
* Frequency(29) 3198.0321
C    -1.293018   -0.680203    0.041576    0.096394   -0.129713    0.019001
C     0.000581    0.100642   -0.014973    0.000081   -0.006104    0.000862
H    -2.073524   -0.062061   -0.043479   -1.199617    0.957877   -0.131171
H    -1.360533   -1.264942    1.015863    0.042845    0.271664   -0.486722
H    -1.317243   -1.449331   -0.793661    0.020742    0.333983    0.389826
C     1.282175   -0.682539    0.156663   -0.057437   -0.075499    0.010343
H     1.303147   -1.167081    1.167891   -0.011365    0.118796   -0.271735
H     2.101718   -0.050654    0.053769    0.707435    0.548553   -0.089846
H     1.340556   -1.514534   -0.596715   -0.023513    0.245919    0.235634
O     0.008075    1.294565   -0.188219   -0.000107    0.002594   -0.000373
10
* Frequency(29) 3198.0321
C    -1.303523   -0.666068    0.039505    0.096394   -0.129713    0.019001
C     0.000572    0.101308   -0.015067    0.000081   -0.006104    0.000862
H    -1.942798   -0.166444   -0.029185   -1.199617    0.957877   -0.131171
H    -1.365202   -1.294546    1.068903    0.042845    0.271664   -0.486722
H    -1.319503   -1.485727   -0.836142    0.020742    0.333983    0.389826
C     1.288434   -0.674311    0.155536   -0.057437   -0.075499    0.010343
H     1.304385   -1.180026    1.197503   -0.011365    0.118796   -0.271735
H     2.024626   -0.110432    0.063560    0.707435    0.548553   -0.089846
H     1.343118   -1.541332   -0.622393   -0.023513    0.245919    0.235634
O     0.008086    1.294282   -0.188178   -0.000107    0.002594   -0.000373
10
* Frequency(29) 3198.0321
C    -1.312287   -0.654274    0.037778    0.096394   -0.129713    0.019001
C     0.000565    0.101863   -0.015145    0.000081   -0.006104    0.000862
H    -1.833726   -0.253536   -0.017258   -1.199617    0.957877   -0.131171
H    -1.369098   -1.319246    1.113157    0.042845    0.271664   -0.486722
H    -1.321389   -1.516093   -0.871586    0.020742    0.333983    0.389826
C     1.293656   -0.667447    0.154596   -0.057437   -0.075499    0.010343
H     1.305418   -1.190828    1.222210   -0.011365    0.118796   -0.271735
H     1.960305   -0.160307    0.071729    0.707435    0.548553   -0.089846
H     1.345256   -1.563692   -0.643818   -0.023513    0.245919    0.235634
O     0.008096    1.294046   -0.188144   -0.000107    0.002594   -0.000373
10
* Frequency(29) 3198.0321
C    -1.318361   -0.646100    0.036580    0.096394   -0.129713    0.019001
C     0.000560    0.102247   -0.015199    0.000081   -0.006104    0.000862
H    -1.758130   -0.313899   -0.008992   -1.199617    0.957877   -0.131171
H    -1.371798   -1.336366    1.143829    0.042845    0.271664   -0.486722
H    -1.322696   -1.537140   -0.896152    0.020742    0.333983    0.389826
C     1.297276   -0.662689    0.153944   -0.057437   -0.075499    0.010343
H     1.306135   -1.198314    1.239334   -0.011365    0.118796   -0.271735
H     1.915724   -0.194876    0.077391    0.707435    0.548553   -0.089846
H     1.346738   -1.579189   -0.658667   -0.023513    0.245919    0.235634
O     0.008103    1.293883   -0.188121   -0.000107    0.002594   -0.000373
10
* Frequency(29) 3198.0321
C    -1.321088   -0.642431    0.036043    0.096394   -0.129713    0.019001
C     0.000558    0.102420   -0.015224    0.000081   -0.006104    0.000862
H    -1.724200   -0.340991   -0.005282   -1.199617    0.957877   -0.131171
H    -1.373009   -1.344049    1.157595    0.042845    0.271664   -0.486722
H    -1.323283   -1.546586   -0.907177    0.020742    0.333983    0.389826
C     1.298900   -0.660554    0.153651   -0.057437   -0.075499    0.010343
H     1.306456   -1.201674    1.247020   -0.011365    0.118796   -0.271735
H     1.895715   -0.210391    0.079932    0.707435    0.548553   -0.089846
H     1.347403   -1.586144   -0.665331   -0.023513    0.245919    0.235634
O     0.008106    1.293810   -0.188110   -0.000107    0.002594   -0.000373
10
* Frequency(29) 3198.0321
C    -1.320171   -0.643665    0.036224    0.096394   -0.129713    0.019001
C     0.000558    0.102362   -0.015215    0.000081   -0.006104    0.000862
H    -1.735614   -0.331878   -0.006530   -1.199617    0.957877   -0.131171
H    -1.372602   -1.341465    1.152964    0.042845    0.271664   -0.486722
H    -1.323085   -1.543408   -0.903468    0.020742    0.333983    0.389826
C     1.298354   -0.661272    0.153750   -0.057437   -0.075499    0.010343
H     1.306348   -1.200543    1.244434   -0.011365    0.118796   -0.271735
H     1.902446   -0.205172    0.079077    0.707435    0.548553   -0.089846
H     1.347179   -1.583804   -0.663089   -0.023513    0.245919    0.235634
O     0.008105    1.293834   -0.188114   -0.000107    0.002594   -0.000373
10
* Frequency(29) 3198.0321
C    -1.315709   -0.649668    0.037103    0.096394   -0.129713    0.019001
C     0.000562    0.102079   -0.015176    0.000081   -0.006104    0.000862
H    -1.791134   -0.287545   -0.012601   -1.199617    0.957877   -0.131171
H    -1.370619   -1.328891    1.130438    0.042845    0.271664   -0.486722
H    -1.322126   -1.527951   -0.885427    0.020742    0.333983    0.389826
C     1.295695   -0.664766    0.154228   -0.057437   -0.075499    0.010343
H     1.305822   -1.195045    1.231858   -0.011365    0.118796   -0.271735
H     1.935187   -0.179784    0.074919    0.707435    0.548553   -0.089846
H     1.346091   -1.572423   -0.652184   -0.023513    0.245919    0.235634
O     0.008100    1.293954   -0.188131   -0.000107    0.002594   -0.000373
10
* Frequency(29) 3198.0321
C    -1.308187   -0.659790    0.038586    0.096394   -0.129713    0.019001
C     0.000569    0.101603   -0.015108    0.000081   -0.006104    0.000862
H    -1.884745   -0.212799   -0.022837   -1.199617    0.957877   -0.131171
H    -1.367276   -1.307692    1.092457    0.042845    0.271664   -0.486722
H    -1.320507   -1.501889   -0.855007    0.020742    0.333983    0.389826
C     1.291213   -0.670658    0.155036   -0.057437   -0.075499    0.010343
H     1.304935   -1.185775    1.210653   -0.011365    0.118796   -0.271735
H     1.990391   -0.136978    0.067908    0.707435    0.548553   -0.089846
H     1.344256   -1.553233   -0.633796   -0.023513    0.245919    0.235634
O     0.008091    1.294157   -0.188160   -0.000107    0.002594   -0.000373
10
* Frequency(29) 3198.0321
C    -1.298420   -0.672934    0.040511    0.096394   -0.129713    0.019001
C     0.000577    0.100985   -0.015021    0.000081   -0.006104    0.000862
H    -2.006302   -0.115737   -0.036129   -1.199617    0.957877   -0.131171
H    -1.362934   -1.280165    1.043138    0.042845    0.271664   -0.486722
H    -1.318405   -1.468047   -0.815506    0.020742    0.333983    0.389826
C     1.285393   -0.678308    0.156084   -0.057437   -0.075499    0.010343
H     1.303783   -1.173738    1.183118   -0.011365    0.118796   -0.271735
H     2.062075   -0.081393    0.058804    0.707435    0.548553   -0.089846
H     1.341874   -1.528314   -0.609920   -0.023513    0.245919    0.235634
O     0.008081    1.294420   -0.188198   -0.000107    0.002594   -0.000373
10
* Frequency(29) 3198.0321
C    -1.287465   -0.687675    0.042671    0.096394   -0.129713    0.019001
C     0.000586    0.100291   -0.014923    0.000081   -0.006104    0.000862
H    -2.142632   -0.006880   -0.051035   -1.199617    0.957877   -0.131171
H    -1.358065   -1.249292    0.987824    0.042845    0.271664   -0.486722
H    -1.316048   -1.430091   -0.771204    0.020742    0.333983    0.389826
C     1.278866   -0.686888    0.157259   -0.057437   -0.075499    0.010343
H     1.302492   -1.160237    1.152237   -0.011365    0.118796   -0.271735
H     2.142472   -0.019053    0.048594    0.707435    0.548553   -0.089846
H     1.339202   -1.500367   -0.583141   -0.023513    0.245919    0.235634
O     0.008068    1.294714   -0.188240   -0.000107    0.002594   -0.000373
