10
* (null), Energy   -1000.0000000
C    -1.287465   -0.687675    0.042671   -0.237327   -0.295229    0.031778
C     0.000586    0.100291   -0.014923   -0.269247    0.003564    0.013136
H    -2.142632   -0.006880   -0.051035   -0.714046   -0.882704    0.083471
H    -1.358065   -1.249292    0.987824    0.191422   -0.376183    0.018091
H    -1.316048   -1.430091   -0.771204    0.201616   -0.350590    0.063490
C     1.278866   -0.686888    0.157259   -0.233598    0.294960   -0.054330
H     1.302492   -1.160237    1.152237    0.201303    0.353294   -0.039623
H     2.142472   -0.019053    0.048594   -0.703131    0.878868   -0.170524
H     1.339202   -1.500367   -0.583141    0.200813    0.361946   -0.089485
O     0.008068    1.294714   -0.188240    0.594863   -0.001506    0.015548
10
* Frequency(10)  541.7035
C    -1.314436   -0.721227    0.046282   -0.237327   -0.295229    0.031778
C    -0.030012    0.100696   -0.013430   -0.269247    0.003564    0.013136
H    -2.223779   -0.107194   -0.041549   -0.714046   -0.882704    0.083471
H    -1.336311   -1.292043    0.989880    0.191422   -0.376183    0.018091
H    -1.293135   -1.469934   -0.763989    0.201616   -0.350590    0.063490
C     1.252319   -0.653367    0.151085   -0.233598    0.294960   -0.054330
H     1.325369   -1.120087    1.147734    0.201303    0.353294   -0.039623
H     2.062564    0.080826    0.029214   -0.703131    0.878868   -0.170524
H     1.362023   -1.459233   -0.593310    0.200813    0.361946   -0.089485
O     0.075671    1.294543   -0.186473    0.594863   -0.001506    0.015548
10
* Frequency(10)  541.7035
C    -1.338484   -0.751142    0.049502   -0.237327   -0.295229    0.031778
C    -0.057295    0.101057   -0.012099   -0.269247    0.003564    0.013136
H    -2.296133   -0.196638   -0.033091   -0.714046   -0.882704    0.083471
H    -1.316914   -1.330161    0.991713    0.191422   -0.376183    0.018091
H    -1.272706   -1.505459   -0.757556    0.201616   -0.350590    0.063490
C     1.228648   -0.623479    0.145579   -0.233598    0.294960   -0.054330
H     1.345767   -1.084288    1.143719    0.201303    0.353294   -0.039623
H     1.991316    0.169881    0.011935   -0.703131    0.878868   -0.170524
H     1.382371   -1.422558   -0.602378    0.200813    0.361946   -0.089485
O     0.135949    1.294391   -0.184898    0.594863   -0.001506    0.015548
10
* Frequency(10)  541.7035
C    -1.357004   -0.774180    0.051982   -0.237327   -0.295229    0.031778
C    -0.078306    0.101335   -0.011074   -0.269247    0.003564    0.013136
H    -2.351853   -0.265519   -0.026578   -0.714046   -0.882704    0.083471
H    -1.301977   -1.359516    0.993125    0.191422   -0.376183    0.018091
H    -1.256973   -1.532817   -0.752601    0.201616   -0.350590    0.063490
C     1.210420   -0.600462    0.141340   -0.233598    0.294960   -0.054330
H     1.361475   -1.056719    1.140627    0.201303    0.353294   -0.039623
H     1.936448    0.238463   -0.001371   -0.703131    0.878868   -0.170524
H     1.398042   -1.394314   -0.609361    0.200813    0.361946   -0.089485
O     0.182368    1.294273   -0.183684    0.594863   -0.001506    0.015548
10
* Frequency(10)  541.7035
C    -1.367988   -0.787843    0.053453   -0.237327   -0.295229    0.031778
C    -0.090767    0.101500   -0.010466   -0.269247    0.003564    0.013136
H    -2.384901   -0.306372   -0.022715   -0.714046   -0.882704    0.083471
H    -1.293118   -1.376927    0.993962    0.191422   -0.376183    0.018091
H    -1.247642   -1.549043   -0.749663    0.201616   -0.350590    0.063490
C     1.199608   -0.586811    0.138825   -0.233598    0.294960   -0.054330
H     1.370792   -1.040368    1.138794    0.201303    0.353294   -0.039623
H     1.903906    0.279138   -0.009264   -0.703131    0.878868   -0.170524
H     1.407336   -1.377562   -0.613502    0.200813    0.361946   -0.089485
O     0.209899    1.294203   -0.182965    0.594863   -0.001506    0.015548
10
* Frequency(10)  541.7035
C    -1.370246   -0.790652    0.053755   -0.237327   -0.295229    0.031778
C    -0.093329    0.101534   -0.010341   -0.269247    0.003564    0.013136
H    -2.391694   -0.314771   -0.021920   -0.714046   -0.882704    0.083471
H    -1.291296   -1.380506    0.994134    0.191422   -0.376183    0.018091
H    -1.245723   -1.552379   -0.749059    0.201616   -0.350590    0.063490
C     1.197386   -0.584005    0.138308   -0.233598    0.294960   -0.054330
H     1.372707   -1.037007    1.138417    0.201303    0.353294   -0.039623
H     1.897216    0.287500   -0.010886   -0.703131    0.878868   -0.170524
H     1.409246   -1.374118   -0.614354    0.200813    0.361946   -0.089485
O     0.215559    1.294189   -0.182817    0.594863   -0.001506    0.015548
10
* Frequency(10)  541.7035
C    -1.363533   -0.782302    0.052856   -0.237327   -0.295229    0.031778
C    -0.085713    0.101433   -0.010713   -0.269247    0.003564    0.013136
H    -2.371498   -0.289804   -0.024281   -0.714046   -0.882704    0.083471
H    -1.296710   -1.369866    0.993623    0.191422   -0.376183    0.018091
H    -1.251426   -1.542463   -0.750854    0.201616   -0.350590    0.063490
C     1.203993   -0.592347    0.139845   -0.233598    0.294960   -0.054330
H     1.367014   -1.046999    1.139537    0.201303    0.353294   -0.039623
H     1.917104    0.262642   -0.006063   -0.703131    0.878868   -0.170524
H     1.403567   -1.384356   -0.611823    0.200813    0.361946   -0.089485
O     0.198734    1.294232   -0.183257    0.594863   -0.001506    0.015548
10
* Frequency(10)  541.7035
C    -1.348577   -0.763698    0.050854   -0.237327   -0.295229    0.031778
C    -0.068746    0.101209   -0.011540   -0.269247    0.003564    0.013136
H    -2.326501   -0.234179   -0.029541   -0.714046   -0.882704    0.083471
H    -1.308773   -1.346160    0.992483    0.191422   -0.376183    0.018091
H    -1.264131   -1.520369   -0.754855    0.201616   -0.350590    0.063490
C     1.218713   -0.610935    0.143269   -0.233598    0.294960   -0.054330
H     1.354328   -1.069263    1.142034    0.201303    0.353294   -0.039623
H     1.961413    0.207258    0.004683   -0.703131    0.878868   -0.170524
H     1.390912   -1.407164   -0.606184    0.200813    0.361946   -0.089485
O     0.161247    1.294327   -0.184237    0.594863   -0.001506    0.015548
10
* Frequency(10)  541.7035
C    -1.326999   -0.736855    0.047964   -0.237327   -0.295229    0.031778
C    -0.044266    0.100885   -0.012735   -0.269247    0.003564    0.013136
H    -2.261579   -0.153922   -0.037131   -0.714046   -0.882704    0.083471
H    -1.326178   -1.311957    0.990838    0.191422   -0.376183    0.018091
H    -1.282462   -1.488493   -0.760628    0.201616   -0.350590    0.063490
C     1.239953   -0.637753    0.148209   -0.233598    0.294960   -0.054330
H     1.336025   -1.101385    1.145637    0.201303    0.353294   -0.039623
H     2.025343    0.127350    0.020187   -0.703131    0.878868   -0.170524
H     1.372653   -1.440073   -0.598047    0.200813    0.361946   -0.089485
O     0.107162    1.294464   -0.185650    0.594863   -0.001506    0.015548
10
* Frequency(10)  541.7035
C    -1.301137   -0.704683    0.044501   -0.237327   -0.295229    0.031778
C    -0.014925    0.100496   -0.014166   -0.269247    0.003564    0.013136
H    -2.183767   -0.057730   -0.046227   -0.714046   -0.882704    0.083471
H    -1.347038   -1.270963    0.988866    0.191422   -0.376183    0.018091
H    -1.304433   -1.450288   -0.767547    0.201616   -0.350590    0.063490
C     1.265409   -0.669896    0.154129   -0.233598    0.294960   -0.054330
H     1.314088   -1.139885    1.149955    0.201303    0.353294   -0.039623
H     2.101966    0.031577    0.038770   -0.703131    0.878868   -0.170524
H     1.350770   -1.479516   -0.588296    0.200813    0.361946   -0.089485
O     0.042337    1.294628   -0.187345    0.594863   -0.001506    0.015548
10
* Frequency(10)  541.7035
C    -1.273793   -0.670668    0.040840   -0.237327   -0.295229    0.031778
C     0.016097    0.100085   -0.015680   -0.269247    0.003564    0.013136
H    -2.101497    0.043971   -0.055844   -0.714046   -0.882704    0.083471
H    -1.369092   -1.227620    0.986782    0.191422   -0.376183    0.018091
H    -1.327663   -1.409894   -0.774862    0.201616   -0.350590    0.063490
C     1.292323   -0.703880    0.160389   -0.233598    0.294960   -0.054330
H     1.290895   -1.180590    1.154520    0.201303    0.353294   -0.039623
H     2.182978   -0.069683    0.058417   -0.703131    0.878868   -0.170524
H     1.327633   -1.521218   -0.577986    0.200813    0.361946   -0.089485
O    -0.026201    1.294801   -0.189136    0.594863   -0.001506    0.015548
10
* Frequency(10)  541.7035
C    -1.247931   -0.638496    0.037377   -0.237327   -0.295229    0.031778
C     0.045438    0.099697   -0.017111   -0.269247    0.003564    0.013136
H    -2.023685    0.140163   -0.064940   -0.714046   -0.882704    0.083471
H    -1.389952   -1.186626    0.984811    0.191422   -0.376183    0.018091
H    -1.349633   -1.371689   -0.781780    0.201616   -0.350590    0.063490
C     1.317779   -0.736023    0.166309   -0.233598    0.294960   -0.054330
H     1.268958   -1.219090    1.158838    0.201303    0.353294   -0.039623
H     2.259600   -0.165456    0.077000   -0.703131    0.878868   -0.170524
H     1.305750   -1.560660   -0.568234    0.200813    0.361946   -0.089485
O    -0.091025    1.294965   -0.190830    0.594863   -0.001506    0.015548
10
* Frequency(10)  541.7035
C    -1.226353   -0.611653    0.034488   -0.237327   -0.295229    0.031778
C     0.069918    0.099373   -0.018305   -0.269247    0.003564    0.013136
H    -1.958762    0.220420   -0.072530   -0.714046   -0.882704    0.083471
H    -1.407357   -1.152423    0.983166    0.191422   -0.376183    0.018091
H    -1.367965   -1.339813   -0.787553    0.201616   -0.350590    0.063490
C     1.339018   -0.762841    0.171249   -0.233598    0.294960   -0.054330
H     1.250656   -1.251212    1.162440    0.201303    0.353294   -0.039623
H     2.323530   -0.245364    0.092504   -0.703131    0.878868   -0.170524
H     1.287492   -1.593569   -0.560098    0.200813    0.361946   -0.089485
O    -0.145111    1.295102   -0.192244    0.594863   -0.001506    0.015548
10
* Frequency(10)  541.7035
C    -1.211397   -0.593048    0.032485   -0.237327   -0.295229    0.031778
C     0.086885    0.099148   -0.019133   -0.269247    0.003564    0.013136
H    -1.913765    0.276045   -0.077790   -0.714046   -0.882704    0.083471
H    -1.419420   -1.128717    0.982026    0.191422   -0.376183    0.018091
H    -1.380670   -1.317720   -0.791554    0.201616   -0.350590    0.063490
C     1.353739   -0.781429    0.174673   -0.233598    0.294960   -0.054330
H     1.237970   -1.273475    1.164937    0.201303    0.353294   -0.039623
H     2.367839   -0.300748    0.103250   -0.703131    0.878868   -0.170524
H     1.274837   -1.616378   -0.554459    0.200813    0.361946   -0.089485
O    -0.182597    1.295197   -0.193224    0.594863   -0.001506    0.015548
10
* Frequency(10)  541.7035
C    -1.204684   -0.584698    0.031586   -0.237327   -0.295229    0.031778
C     0.094501    0.099048   -0.019505   -0.269247    0.003564    0.013136
H    -1.893569    0.301012   -0.080151   -0.714046   -0.882704    0.083471
H    -1.424834   -1.118077    0.981514    0.191422   -0.376183    0.018091
H    -1.386373   -1.307804   -0.793350    0.201616   -0.350590    0.063490
C     1.360346   -0.789772    0.176210   -0.233598    0.294960   -0.054330
H     1.232276   -1.283468    1.166058    0.201303    0.353294   -0.039623
H     2.387727   -0.325606    0.108073   -0.703131    0.878868   -0.170524
H     1.269157   -1.626615   -0.551928    0.200813    0.361946   -0.089485
O    -0.199422    1.295240   -0.193664    0.594863   -0.001506    0.015548
10
* Frequency(10)  541.7035
C    -1.206942   -0.587507    0.031889   -0.237327   -0.295229    0.031778
C     0.091939    0.099081   -0.019380   -0.269247    0.003564    0.013136
H    -1.900363    0.292613   -0.079356   -0.714046   -0.882704    0.083471
H    -1.423013   -1.121656    0.981686    0.191422   -0.376183    0.018091
H    -1.384454   -1.311140   -0.792746    0.201616   -0.350590    0.063490
C     1.358123   -0.786965    0.175693   -0.233598    0.294960   -0.054330
H     1.234192   -1.280106    1.165681    0.201303    0.353294   -0.039623
H     2.381037   -0.317244    0.106451   -0.703131    0.878868   -0.170524
H     1.271068   -1.623172   -0.552780    0.200813    0.361946   -0.089485
O    -0.193763    1.295226   -0.193516    0.594863   -0.001506    0.015548
10
* Frequency(10)  541.7035
C    -1.217926   -0.601171    0.033360   -0.237327   -0.295229    0.031778
C     0.079478    0.099246   -0.018772   -0.269247    0.003564    0.013136
H    -1.933410    0.251760   -0.075493   -0.714046   -0.882704    0.083471
H    -1.414153   -1.139067    0.982523    0.191422   -0.376183    0.018091
H    -1.375123   -1.327366   -0.789807    0.201616   -0.350590    0.063490
C     1.347312   -0.773314    0.173178   -0.233598    0.294960   -0.054330
H     1.243508   -1.263755    1.163847    0.201303    0.353294   -0.039623
H     2.348495   -0.276568    0.098558   -0.703131    0.878868   -0.170524
H     1.280362   -1.606420   -0.556921    0.200813    0.361946   -0.089485
O    -0.166231    1.295156   -0.192796    0.594863   -0.001506    0.015548
10
* Frequency(10)  541.7035
C    -1.236446   -0.624209    0.035839   -0.237327   -0.295229    0.031778
C     0.058467    0.099525   -0.017747   -0.269247    0.003564    0.013136
H    -1.989130    0.182879   -0.068980   -0.714046   -0.882704    0.083471
H    -1.399216   -1.168422    0.983935    0.191422   -0.376183    0.018091
H    -1.359390   -1.354723   -0.784853    0.201616   -0.350590    0.063490
C     1.329083   -0.750297    0.168939   -0.233598    0.294960   -0.054330
H     1.259217   -1.236186    1.160755    0.201303    0.353294   -0.039623
H     2.293627   -0.207987    0.085252   -0.703131    0.878868   -0.170524
H     1.296032   -1.578176   -0.563904    0.200813    0.361946   -0.089485
O    -0.119812    1.295038   -0.191583    0.594863   -0.001506    0.015548
10
* Frequency(10)  541.7035
C    -1.260494   -0.654124    0.039059   -0.237327   -0.295229    0.031778
C     0.031185    0.099886   -0.016416   -0.269247    0.003564    0.013136
H    -2.061484    0.093435   -0.060522   -0.714046   -0.882704    0.083471
H    -1.379819   -1.206540    0.985768    0.191422   -0.376183    0.018091
H    -1.338961   -1.390249   -0.778420    0.201616   -0.350590    0.063490
C     1.305413   -0.720409    0.163433   -0.233598    0.294960   -0.054330
H     1.279615   -1.200387    1.156740    0.201303    0.353294   -0.039623
H     2.222379   -0.118932    0.067973   -0.703131    0.878868   -0.170524
H     1.316380   -1.541500   -0.572971    0.200813    0.361946   -0.089485
O    -0.059535    1.294886   -0.190007    0.594863   -0.001506    0.015548
10
* Frequency(10)  541.7035
C    -1.287465   -0.687675    0.042671   -0.237327   -0.295229    0.031778
C     0.000586    0.100291   -0.014923   -0.269247    0.003564    0.013136
H    -2.142632   -0.006880   -0.051035   -0.714046   -0.882704    0.083471
H    -1.358065   -1.249292    0.987824    0.191422   -0.376183    0.018091
H    -1.316048   -1.430091   -0.771204    0.201616   -0.350590    0.063490
C     1.278866   -0.686888    0.157259   -0.233598    0.294960   -0.054330
H     1.302492   -1.160237    1.152237    0.201303    0.353294   -0.039623
H     2.142472   -0.019053    0.048594   -0.703131    0.878868   -0.170524
H     1.339202   -1.500367   -0.583141    0.200813    0.361946   -0.089485
O     0.008068    1.294714   -0.188240    0.594863   -0.001506    0.015548
