3
Coordinates from ORCA-job .\H2O_opt_BP86 E -76.456269271388
  O      -4.000000      0.000000      0.000000
  H      -2.973650      0.000000      0.000000
  H      -3.996500     -0.978550      0.311650
3
Coordinates from ORCA-job .\H2O_opt_BP86 E -76.463018548598
  O      -3.965989     -0.032594      0.010381
  H      -2.985115      0.021458     -0.006834
  H      -4.019046     -0.967414      0.308103
3
Coordinates from ORCA-job .\H2O_opt_BP86 E -76.464514984276
  O      -3.940918     -0.056437      0.017974
  H      -2.979658      0.050568     -0.016105
  H      -4.049574     -0.972681      0.309781
3
Coordinates from ORCA-job .\H2O_opt_BP86 E -76.464586576899
  O      -3.938269     -0.058900      0.018759
  H      -2.974479      0.058041     -0.018485
  H      -4.057403     -0.977690      0.311376
3
Coordinates from ORCA-job .\H2O_opt_BP86 E -76.464586760091
  O      -3.937966     -0.059200      0.018854
  H      -2.974419      0.058388     -0.018595
  H      -4.057765     -0.977738      0.311391
3
Coordinates from ORCA-job .\H2O_opt_BP86 E -76.464586760063
  O      -3.937956     -0.059206      0.018856
  H      -2.974419      0.058397     -0.018598
  H      -4.057775     -0.977740      0.311392
