3
* (null), Energy   -1000.0000000
O    -0.047209    0.044815   -0.014273    0.000000    0.000000    0.000000
H     0.916328    0.162418   -0.051727    0.000000    0.000000    0.000000
H    -0.167028   -0.873719    0.278263    0.000000    0.000000    0.000000
3
* Frequency(4)    0.0000
O    -0.047209    0.044815   -0.014273    0.000000    0.000000    0.000000
H     0.916328    0.162418   -0.051727    0.000000    0.000000    0.000000
H    -0.167028   -0.873719    0.278263    0.000000    0.000000    0.000000
3
* Frequency(4)    0.0000
O    -0.047209    0.044815   -0.014273    0.000000    0.000000    0.000000
H     0.916328    0.162418   -0.051727    0.000000    0.000000    0.000000
H    -0.167028   -0.873719    0.278263    0.000000    0.000000    0.000000
3
* Frequency(4)    0.0000
O    -0.047209    0.044815   -0.014273    0.000000    0.000000    0.000000
H     0.916328    0.162418   -0.051727    0.000000    0.000000    0.000000
H    -0.167028   -0.873719    0.278263    0.000000    0.000000    0.000000
3
* Frequency(4)    0.0000
O    -0.047209    0.044815   -0.014273    0.000000    0.000000    0.000000
H     0.916328    0.162418   -0.051727    0.000000    0.000000    0.000000
H    -0.167028   -0.873719    0.278263    0.000000    0.000000    0.000000
3
* Frequency(4)    0.0000
O    -0.047209    0.044815   -0.014273    0.000000    0.000000    0.000000
H     0.916328    0.162418   -0.051727    0.000000    0.000000    0.000000
H    -0.167028   -0.873719    0.278263    0.000000    0.000000    0.000000
3
* Frequency(4)    0.0000
O    -0.047209    0.044815   -0.014273    0.000000    0.000000    0.000000
H     0.916328    0.162418   -0.051727    0.000000    0.000000    0.000000
H    -0.167028   -0.873719    0.278263    0.000000    0.000000    0.000000
3
* Frequency(4)    0.0000
O    -0.047209    0.044815   -0.014273    0.000000    0.000000    0.000000
H     0.916328    0.162418   -0.051727    0.000000    0.000000    0.000000
H    -0.167028   -0.873719    0.278263    0.000000    0.000000    0.000000
3
* Frequency(4)    0.0000
O    -0.047209    0.044815   -0.014273    0.000000    0.000000    0.000000
H     0.916328    0.162418   -0.051727    0.000000    0.000000    0.000000
H    -0.167028   -0.873719    0.278263    0.000000    0.000000    0.000000
3
* Frequency(4)    0.0000
O    -0.047209    0.044815   -0.014273    0.000000    0.000000    0.000000
H     0.916328    0.162418   -0.051727    0.000000    0.000000    0.000000
H    -0.167028   -0.873719    0.278263    0.000000    0.000000    0.000000
3
* Frequency(4)    0.0000
O    -0.047209    0.044815   -0.014273    0.000000    0.000000    0.000000
H     0.916328    0.162418   -0.051727    0.000000    0.000000    0.000000
H    -0.167028   -0.873719    0.278263    0.000000    0.000000    0.000000
3
* Frequency(4)    0.0000
O    -0.047209    0.044815   -0.014273    0.000000    0.000000    0.000000
H     0.916328    0.162418   -0.051727    0.000000    0.000000    0.000000
H    -0.167028   -0.873719    0.278263    0.000000    0.000000    0.000000
3
* Frequency(4)    0.0000
O    -0.047209    0.044815   -0.014273    0.000000    0.000000    0.000000
H     0.916328    0.162418   -0.051727    0.000000    0.000000    0.000000
H    -0.167028   -0.873719    0.278263    0.000000    0.000000    0.000000
3
* Frequency(4)    0.0000
O    -0.047209    0.044815   -0.014273    0.000000    0.000000    0.000000
H     0.916328    0.162418   -0.051727    0.000000    0.000000    0.000000
H    -0.167028   -0.873719    0.278263    0.000000    0.000000    0.000000
3
* Frequency(4)    0.0000
O    -0.047209    0.044815   -0.014273    0.000000    0.000000    0.000000
H     0.916328    0.162418   -0.051727    0.000000    0.000000    0.000000
H    -0.167028   -0.873719    0.278263    0.000000    0.000000    0.000000
3
* Frequency(4)    0.0000
O    -0.047209    0.044815   -0.014273    0.000000    0.000000    0.000000
H     0.916328    0.162418   -0.051727    0.000000    0.000000    0.000000
H    -0.167028   -0.873719    0.278263    0.000000    0.000000    0.000000
3
* Frequency(4)    0.0000
O    -0.047209    0.044815   -0.014273    0.000000    0.000000    0.000000
H     0.916328    0.162418   -0.051727    0.000000    0.000000    0.000000
H    -0.167028   -0.873719    0.278263    0.000000    0.000000    0.000000
3
* Frequency(4)    0.0000
O    -0.047209    0.044815   -0.014273    0.000000    0.000000    0.000000
H     0.916328    0.162418   -0.051727    0.000000    0.000000    0.000000
H    -0.167028   -0.873719    0.278263    0.000000    0.000000    0.000000
3
* Frequency(4)    0.0000
O    -0.047209    0.044815   -0.014273    0.000000    0.000000    0.000000
H     0.916328    0.162418   -0.051727    0.000000    0.000000    0.000000
H    -0.167028   -0.873719    0.278263    0.000000    0.000000    0.000000
3
* Frequency(4)    0.0000
O    -0.047209    0.044815   -0.014273    0.000000    0.000000    0.000000
H     0.916328    0.162418   -0.051727    0.000000    0.000000    0.000000
H    -0.167028   -0.873719    0.278263    0.000000    0.000000    0.000000
