3
* (null), Energy   -1000.0000000
O    -0.047209    0.044815   -0.014273    0.099089    0.094836   -0.030204
H     0.916328    0.162418   -0.051727   -1.398655   -0.170706    0.054367
H    -0.167028   -0.873719    0.278263   -0.174090   -1.334538    0.425025
3
* Frequency(8) 3786.7400
O    -0.035948    0.055592   -0.017705    0.099089    0.094836   -0.030204
H     0.757378    0.143018   -0.045549   -1.398655   -0.170706    0.054367
H    -0.186812   -1.025382    0.326565   -0.174090   -1.334538    0.425025
3
* Frequency(8) 3786.7400
O    -0.025907    0.065202   -0.020766    0.099089    0.094836   -0.030204
H     0.615653    0.125720   -0.040040   -1.398655   -0.170706    0.054367
H    -0.204453   -1.160611    0.369633   -0.174090   -1.334538    0.425025
3
* Frequency(8) 3786.7400
O    -0.018175    0.072603   -0.023123    0.099089    0.094836   -0.030204
H     0.506511    0.112400   -0.035797   -1.398655   -0.170706    0.054367
H    -0.218038   -1.264750    0.402799   -0.174090   -1.334538    0.425025
3
* Frequency(8) 3786.7400
O    -0.013589    0.076992   -0.024520    0.099089    0.094836   -0.030204
H     0.441779    0.104499   -0.033281   -1.398655   -0.170706    0.054367
H    -0.226095   -1.326515    0.422470   -0.174090   -1.334538    0.425025
3
* Frequency(8) 3786.7400
O    -0.012646    0.077894   -0.024808    0.099089    0.094836   -0.030204
H     0.428471    0.102875   -0.032764   -1.398655   -0.170706    0.054367
H    -0.227751   -1.339212    0.426514   -0.174090   -1.334538    0.425025
3
* Frequency(8) 3786.7400
O    -0.015449    0.075212   -0.023954    0.099089    0.094836   -0.030204
H     0.468030    0.107703   -0.034301   -1.398655   -0.170706    0.054367
H    -0.222827   -1.301466    0.414493   -0.174090   -1.334538    0.425025
3
* Frequency(8) 3786.7400
O    -0.021693    0.069235   -0.022050    0.099089    0.094836   -0.030204
H     0.556170    0.118461   -0.037727   -1.398655   -0.170706    0.054367
H    -0.211856   -1.217367    0.387709   -0.174090   -1.334538    0.425025
3
* Frequency(8) 3786.7400
O    -0.030702    0.060613   -0.019304    0.099089    0.094836   -0.030204
H     0.683338    0.133981   -0.042671   -1.398655   -0.170706    0.054367
H    -0.196028   -1.096029    0.349065   -0.174090   -1.334538    0.425025
3
* Frequency(8) 3786.7400
O    -0.041501    0.050278   -0.016013    0.099089    0.094836   -0.030204
H     0.835754    0.152584   -0.048595   -1.398655   -0.170706    0.054367
H    -0.177057   -0.950599    0.302748   -0.174090   -1.334538    0.425025
3
* Frequency(8) 3786.7400
O    -0.052917    0.039351   -0.012533    0.099089    0.094836   -0.030204
H     0.996902    0.172252   -0.054859   -1.398655   -0.170706    0.054367
H    -0.156999   -0.796839    0.253778   -0.174090   -1.334538    0.425025
3
* Frequency(8) 3786.7400
O    -0.063715    0.029017   -0.009241    0.099089    0.094836   -0.030204
H     1.149318    0.190854   -0.060784   -1.398655   -0.170706    0.054367
H    -0.138028   -0.651410    0.207462   -0.174090   -1.334538    0.425025
3
* Frequency(8) 3786.7400
O    -0.072725    0.020394   -0.006495    0.099089    0.094836   -0.030204
H     1.276486    0.206375   -0.065727   -1.398655   -0.170706    0.054367
H    -0.122199   -0.530071    0.168818   -0.174090   -1.334538    0.425025
3
* Frequency(8) 3786.7400
O    -0.078969    0.014418   -0.004592    0.099089    0.094836   -0.030204
H     1.364626    0.217132   -0.069153   -1.398655   -0.170706    0.054367
H    -0.111228   -0.445972    0.142034   -0.174090   -1.334538    0.425025
3
* Frequency(8) 3786.7400
O    -0.081772    0.011735   -0.003738    0.099089    0.094836   -0.030204
H     1.404185    0.221961   -0.070690   -1.398655   -0.170706    0.054367
H    -0.106304   -0.408226    0.130013   -0.174090   -1.334538    0.425025
3
* Frequency(8) 3786.7400
O    -0.080829    0.012638   -0.004025    0.099089    0.094836   -0.030204
H     1.390878    0.220337   -0.070173   -1.398655   -0.170706    0.054367
H    -0.107961   -0.420924    0.134056   -0.174090   -1.334538    0.425025
3
* Frequency(8) 3786.7400
O    -0.076243    0.017027   -0.005423    0.099089    0.094836   -0.030204
H     1.326146    0.212436   -0.067657   -1.398655   -0.170706    0.054367
H    -0.116018   -0.482689    0.153727   -0.174090   -1.334538    0.425025
3
* Frequency(8) 3786.7400
O    -0.068511    0.024427   -0.007780    0.099089    0.094836   -0.030204
H     1.217003    0.199115   -0.063414   -1.398655   -0.170706    0.054367
H    -0.129603   -0.586828    0.186894   -0.174090   -1.334538    0.425025
3
* Frequency(8) 3786.7400
O    -0.058470    0.034037   -0.010840    0.099089    0.094836   -0.030204
H     1.075278    0.181818   -0.057906   -1.398655   -0.170706    0.054367
H    -0.147243   -0.722056    0.229961   -0.174090   -1.334538    0.425025
3
* Frequency(8) 3786.7400
O    -0.047209    0.044815   -0.014273    0.099089    0.094836   -0.030204
H     0.916328    0.162418   -0.051727   -1.398655   -0.170706    0.054367
H    -0.167028   -0.873719    0.278263   -0.174090   -1.334538    0.425025
