3
Coordinates from ORCA-job .\H2O_opt_HF E -76.041523435470
  O      -4.000000      0.000000      0.000000
  H      -2.973650      0.000000      0.000000
  H      -3.996500     -0.978550      0.311650
3
Coordinates from ORCA-job .\H2O_opt_HF E -76.057392885533
  O      -3.951152     -0.046703      0.014874
  H      -3.007981      0.013728     -0.004372
  H      -4.011017     -0.945575      0.301148
3
Coordinates from ORCA-job .\H2O_opt_HF E -76.059433160919
  O      -3.928650     -0.068055      0.021674
  H      -2.996928      0.045739     -0.014567
  H      -4.044572     -0.956234      0.304543
3
Coordinates from ORCA-job .\H2O_opt_HF E -76.059576159686
  O      -3.923544     -0.072880      0.023211
  H      -2.990314      0.056928     -0.018130
  H      -4.056292     -0.962597      0.306569
3
Coordinates from ORCA-job .\H2O_opt_HF E -76.059578780740
  O      -3.922792     -0.073606      0.023442
  H      -2.990902      0.057083     -0.018180
  H      -4.056456     -0.962027      0.306388
3
Coordinates from ORCA-job .\H2O_opt_HF E -76.059578822903
  O      -3.922897     -0.073502      0.023409
  H      -2.990861      0.057022     -0.018161
  H      -4.056393     -0.962071      0.306402
