13
* (null), Energy   -1000.0000000
C     1.365855    0.533997   -0.017795   -0.018219    0.041359    0.233912
C     1.281863   -0.788655    0.093257    0.056433   -0.016682   -0.200881
N    -0.021011   -1.450395    0.118437   -0.046037   -0.021874    0.019429
C    -1.289878   -0.622329    0.007801   -0.002882    0.003507   -0.032267
N    -1.064188    0.706802   -0.097341    0.029386    0.004636    0.006667
C     0.168081    1.391376   -0.119566   -0.004950   -0.006442   -0.028725
O    -2.334795   -1.198357    0.024143    0.002355   -0.009848    0.007673
O     0.193513    2.595440   -0.217241    0.000467   -0.000861    0.009552
H     2.123010   -1.478478    0.173803    0.028604    0.115749    1.269553
H    -0.114939   -2.012404    0.984263   -0.014899   -0.097277   -0.027517
H    -1.901448    1.289086   -0.172072    0.051852    0.033554   -0.005559
H     2.334895    1.034094   -0.036100   -0.045113    0.032304   -1.484671
H    -0.071619   -2.162707   -0.633029   -0.195870    0.066114   -0.054651
13
* Frequency(21)  979.9381
C     1.363784    0.538698    0.008787   -0.018219    0.041359    0.233912
C     1.288276   -0.790551    0.070428    0.056433   -0.016682   -0.200881
N    -0.026243   -1.452881    0.120645   -0.046037   -0.021874    0.019429
C    -1.290205   -0.621931    0.004134   -0.002882    0.003507   -0.032267
N    -1.060848    0.707329   -0.096584    0.029386    0.004636    0.006667
C     0.167519    1.390644   -0.122831   -0.004950   -0.006442   -0.028725
O    -2.334527   -1.199476    0.025015    0.002355   -0.009848    0.007673
O     0.193566    2.595342   -0.216156    0.000467   -0.000861    0.009552
H     2.126261   -1.465323    0.318082    0.028604    0.115749    1.269553
H    -0.116632   -2.023459    0.981136   -0.014899   -0.097277   -0.027517
H    -1.895555    1.292899   -0.172704    0.051852    0.033554   -0.005559
H     2.329768    1.037765   -0.204825   -0.045113    0.032304   -1.484671
H    -0.093879   -2.155193   -0.639239   -0.195870    0.066114   -0.054651
13
* Frequency(21)  979.9381
C     1.361938    0.542888    0.032490   -0.018219    0.041359    0.233912
C     1.293995   -0.792242    0.050072    0.056433   -0.016682   -0.200881
N    -0.030907   -1.455097    0.122614   -0.046037   -0.021874    0.019429
C    -1.290497   -0.621576    0.000864   -0.002882    0.003507   -0.032267
N    -1.057871    0.707798   -0.095908    0.029386    0.004636    0.006667
C     0.167017    1.389991   -0.125742   -0.004950   -0.006442   -0.028725
O    -2.334289   -1.200474    0.025793    0.002355   -0.009848    0.007673
O     0.193613    2.595255   -0.215188    0.000467   -0.000861    0.009552
H     2.129159   -1.453595    0.446725    0.028604    0.115749    1.269553
H    -0.118141   -2.033316    0.978348   -0.014899   -0.097277   -0.027517
H    -1.890301    1.296299   -0.173267    0.051852    0.033554   -0.005559
H     2.325197    1.041039   -0.355266   -0.045113    0.032304   -1.484671
H    -0.113726   -2.148494   -0.644777   -0.195870    0.066114   -0.054651
13
* Frequency(21)  979.9381
C     1.360516    0.546116    0.050743   -0.018219    0.041359    0.233912
C     1.298398   -0.793543    0.034397    0.056433   -0.016682   -0.200881
N    -0.034500   -1.456804    0.124130   -0.046037   -0.021874    0.019429
C    -1.290722   -0.621302   -0.001653   -0.002882    0.003507   -0.032267
N    -1.055578    0.708160   -0.095388    0.029386    0.004636    0.006667
C     0.166631    1.389488   -0.127983   -0.004950   -0.006442   -0.028725
O    -2.334105   -1.201243    0.026392    0.002355   -0.009848    0.007673
O     0.193650    2.595188   -0.214442    0.000467   -0.000861    0.009552
H     2.131391   -1.444562    0.545793    0.028604    0.115749    1.269553
H    -0.119304   -2.040907    0.976201   -0.014899   -0.097277   -0.027517
H    -1.886255    1.298918   -0.173701    0.051852    0.033554   -0.005559
H     2.321676    1.043559   -0.471121   -0.045113    0.032304   -1.484671
H    -0.129010   -2.143335   -0.649042   -0.195870    0.066114   -0.054651
13
* Frequency(21)  979.9381
C     1.359673    0.548030    0.061569   -0.018219    0.041359    0.233912
C     1.301010   -0.794315    0.025100    0.056433   -0.016682   -0.200881
N    -0.036631   -1.457817    0.125029   -0.046037   -0.021874    0.019429
C    -1.290855   -0.621140   -0.003147   -0.002882    0.003507   -0.032267
N    -1.054218    0.708375   -0.095079    0.029386    0.004636    0.006667
C     0.166402    1.389190   -0.129313   -0.004950   -0.006442   -0.028725
O    -2.333996   -1.201698    0.026747    0.002355   -0.009848    0.007673
O     0.193671    2.595148   -0.214000    0.000467   -0.000861    0.009552
H     2.132715   -1.439205    0.604550    0.028604    0.115749    1.269553
H    -0.119994   -2.045409    0.974927   -0.014899   -0.097277   -0.027517
H    -1.883855    1.300471   -0.173958    0.051852    0.033554   -0.005559
H     2.319588    1.045055   -0.539834   -0.045113    0.032304   -1.484671
H    -0.138076   -2.140275   -0.651571   -0.195870    0.066114   -0.054651
13
* Frequency(21)  979.9381
C     1.359500    0.548423    0.063794   -0.018219    0.041359    0.233912
C     1.301547   -0.794474    0.023189    0.056433   -0.016682   -0.200881
N    -0.037069   -1.458025    0.125214   -0.046037   -0.021874    0.019429
C    -1.290883   -0.621106   -0.003454   -0.002882    0.003507   -0.032267
N    -1.053938    0.708419   -0.095016    0.029386    0.004636    0.006667
C     0.166354    1.389129   -0.129586   -0.004950   -0.006442   -0.028725
O    -2.333974   -1.201792    0.026820    0.002355   -0.009848    0.007673
O     0.193676    2.595140   -0.213909    0.000467   -0.000861    0.009552
H     2.132987   -1.438104    0.616629    0.028604    0.115749    1.269553
H    -0.120135   -2.046334    0.974665   -0.014899   -0.097277   -0.027517
H    -1.883362    1.300790   -0.174011    0.051852    0.033554   -0.005559
H     2.319159    1.045362   -0.553960   -0.045113    0.032304   -1.484671
H    -0.139939   -2.139646   -0.652091   -0.195870    0.066114   -0.054651
13
* Frequency(21)  979.9381
C     1.360015    0.547254    0.057178   -0.018219    0.041359    0.233912
C     1.299951   -0.794002    0.028870    0.056433   -0.016682   -0.200881
N    -0.035766   -1.457406    0.124665   -0.046037   -0.021874    0.019429
C    -1.290801   -0.621205   -0.002541   -0.002882    0.003507   -0.032267
N    -1.054769    0.708288   -0.095204    0.029386    0.004636    0.006667
C     0.166494    1.389311   -0.128773   -0.004950   -0.006442   -0.028725
O    -2.334040   -1.201514    0.026603    0.002355   -0.009848    0.007673
O     0.193663    2.595164   -0.214180    0.000467   -0.000861    0.009552
H     2.132178   -1.441378    0.580721    0.028604    0.115749    1.269553
H    -0.119714   -2.043583    0.975443   -0.014899   -0.097277   -0.027517
H    -1.884828    1.299841   -0.173854    0.051852    0.033554   -0.005559
H     2.320435    1.044448   -0.511968   -0.045113    0.032304   -1.484671
H    -0.134399   -2.141516   -0.650545   -0.195870    0.066114   -0.054651
13
* Frequency(21)  979.9381
C     1.361163    0.544647    0.042438   -0.018219    0.041359    0.233912
C     1.296395   -0.792951    0.041529    0.056433   -0.016682   -0.200881
N    -0.032865   -1.456028    0.123440   -0.046037   -0.021874    0.019429
C    -1.290620   -0.621426   -0.000508   -0.002882    0.003507   -0.032267
N    -1.056621    0.707995   -0.095624    0.029386    0.004636    0.006667
C     0.166806    1.389717   -0.126963   -0.004950   -0.006442   -0.028725
O    -2.334189   -1.200893    0.026119    0.002355   -0.009848    0.007673
O     0.193633    2.595218   -0.214781    0.000467   -0.000861    0.009552
H     2.130376   -1.448672    0.500718    0.028604    0.115749    1.269553
H    -0.118775   -2.037453    0.977178   -0.014899   -0.097277   -0.027517
H    -1.888096    1.297726   -0.173504    0.051852    0.033554   -0.005559
H     2.323278    1.042413   -0.418408   -0.045113    0.032304   -1.484671
H    -0.122056   -2.145682   -0.647101   -0.195870    0.066114   -0.054651
13
* Frequency(21)  979.9381
C     1.362820    0.540887    0.021170   -0.018219    0.041359    0.233912
C     1.291264   -0.791434    0.059794    0.056433   -0.016682   -0.200881
N    -0.028680   -1.454039    0.121674   -0.046037   -0.021874    0.019429
C    -1.290358   -0.621745    0.002426   -0.002882    0.003507   -0.032267
N    -1.059293    0.707574   -0.096231    0.029386    0.004636    0.006667
C     0.167256    1.390303   -0.124351   -0.004950   -0.006442   -0.028725
O    -2.334403   -1.199998    0.025421    0.002355   -0.009848    0.007673
O     0.193591    2.595297   -0.215650    0.000467   -0.000861    0.009552
H     2.127775   -1.459196    0.385288    0.028604    0.115749    1.269553
H    -0.117420   -2.028608    0.979679   -0.014899   -0.097277   -0.027517
H    -1.892810    1.294676   -0.172998    0.051852    0.033554   -0.005559
H     2.327380    1.039475   -0.283419   -0.045113    0.032304   -1.484671
H    -0.104247   -2.151693   -0.642132   -0.195870    0.066114   -0.054651
13
* Frequency(21)  979.9381
C     1.364805    0.536380   -0.004320   -0.018219    0.041359    0.233912
C     1.285114   -0.789616    0.081684    0.056433   -0.016682   -0.200881
N    -0.023663   -1.451655    0.119557   -0.046037   -0.021874    0.019429
C    -1.290044   -0.622127    0.005942   -0.002882    0.003507   -0.032267
N    -1.062495    0.707069   -0.096957    0.029386    0.004636    0.006667
C     0.167796    1.391005   -0.121221   -0.004950   -0.006442   -0.028725
O    -2.334659   -1.198924    0.024585    0.002355   -0.009848    0.007673
O     0.193540    2.595391   -0.216691    0.000467   -0.000861    0.009552
H     2.124658   -1.471810    0.246940    0.028604    0.115749    1.269553
H    -0.115797   -2.018008    0.982678   -0.014899   -0.097277   -0.027517
H    -1.898461    1.291019   -0.172393    0.051852    0.033554   -0.005559
H     2.332296    1.035955   -0.121629   -0.045113    0.032304   -1.484671
H    -0.082903   -2.158898   -0.636177   -0.195870    0.066114   -0.054651
13
* Frequency(21)  979.9381
C     1.366905    0.531615   -0.031271   -0.018219    0.041359    0.233912
C     1.278612   -0.787694    0.104829    0.056433   -0.016682   -0.200881
N    -0.018359   -1.449135    0.117318   -0.046037   -0.021874    0.019429
C    -1.289712   -0.622531    0.009660   -0.002882    0.003507   -0.032267
N    -1.065881    0.706535   -0.097725    0.029386    0.004636    0.006667
C     0.168366    1.391747   -0.117912   -0.004950   -0.006442   -0.028725
O    -2.334931   -1.197790    0.023701    0.002355   -0.009848    0.007673
O     0.193486    2.595490   -0.217791    0.000467   -0.000861    0.009552
H     2.121362   -1.485146    0.100667    0.028604    0.115749    1.269553
H    -0.114080   -2.006800    0.985849   -0.014899   -0.097277   -0.027517
H    -1.904435    1.287153   -0.171752    0.051852    0.033554   -0.005559
H     2.337494    1.032233    0.049429   -0.045113    0.032304   -1.484671
H    -0.060335   -2.166515   -0.629880   -0.195870    0.066114   -0.054651
13
* Frequency(21)  979.9381
C     1.368890    0.527108   -0.056761   -0.018219    0.041359    0.233912
C     1.272462   -0.785877    0.126720    0.056433   -0.016682   -0.200881
N    -0.013342   -1.446751    0.115201   -0.046037   -0.021874    0.019429
C    -1.289397   -0.622914    0.013176   -0.002882    0.003507   -0.032267
N    -1.069083    0.706029   -0.098452    0.029386    0.004636    0.006667
C     0.168906    1.392449   -0.114781   -0.004950   -0.006442   -0.028725
O    -2.335187   -1.196717    0.022865    0.002355   -0.009848    0.007673
O     0.193435    2.595584   -0.218832    0.000467   -0.000861    0.009552
H     2.118245   -1.497759   -0.037681    0.028604    0.115749    1.269553
H    -0.112457   -1.996200    0.988847   -0.014899   -0.097277   -0.027517
H    -1.910085    1.283496   -0.171147    0.051852    0.033554   -0.005559
H     2.342410    1.028713    0.211219   -0.045113    0.032304   -1.484671
H    -0.038991   -2.173720   -0.623925   -0.195870    0.066114   -0.054651
13
* Frequency(21)  979.9381
C     1.370547    0.523347   -0.078029   -0.018219    0.041359    0.233912
C     1.267331   -0.784360    0.144984    0.056433   -0.016682   -0.200881
N    -0.009156   -1.444762    0.113434   -0.046037   -0.021874    0.019429
C    -1.289135   -0.623232    0.016110   -0.002882    0.003507   -0.032267
N    -1.071755    0.705608   -0.099058    0.029386    0.004636    0.006667
C     0.169356    1.393035   -0.112169   -0.004950   -0.006442   -0.028725
O    -2.335401   -1.195821    0.022167    0.002355   -0.009848    0.007673
O     0.193393    2.595662   -0.219701    0.000467   -0.000861    0.009552
H     2.115644   -1.508284   -0.153111    0.028604    0.115749    1.269553
H    -0.111102   -1.987355    0.991349   -0.014899   -0.097277   -0.027517
H    -1.914800    1.280446   -0.170641    0.051852    0.033554   -0.005559
H     2.346512    1.025776    0.346208   -0.045113    0.032304   -1.484671
H    -0.021182   -2.179731   -0.618956   -0.195870    0.066114   -0.054651
13
* Frequency(21)  979.9381
C     1.371695    0.520741   -0.092769   -0.018219    0.041359    0.233912
C     1.263775   -0.783309    0.157643    0.056433   -0.016682   -0.200881
N    -0.006255   -1.443384    0.112210   -0.046037   -0.021874    0.019429
C    -1.288954   -0.623453    0.018143   -0.002882    0.003507   -0.032267
N    -1.073607    0.705316   -0.099478    0.029386    0.004636    0.006667
C     0.169668    1.393441   -0.110359   -0.004950   -0.006442   -0.028725
O    -2.335550   -1.195201    0.021684    0.002355   -0.009848    0.007673
O     0.193363    2.595716   -0.220303    0.000467   -0.000861    0.009552
H     2.113842   -1.515578   -0.233114    0.028604    0.115749    1.269553
H    -0.110163   -1.981225    0.993083   -0.014899   -0.097277   -0.027517
H    -1.918067    1.278331   -0.170291    0.051852    0.033554   -0.005559
H     2.349355    1.023740    0.439768   -0.045113    0.032304   -1.484671
H    -0.008839   -2.183897   -0.615512   -0.195870    0.066114   -0.054651
13
* Frequency(21)  979.9381
C     1.372210    0.519571   -0.099385   -0.018219    0.041359    0.233912
C     1.262179   -0.782837    0.163325    0.056433   -0.016682   -0.200881
N    -0.004953   -1.442765    0.111660   -0.046037   -0.021874    0.019429
C    -1.288872   -0.623553    0.019056   -0.002882    0.003507   -0.032267
N    -1.074438    0.705185   -0.099666    0.029386    0.004636    0.006667
C     0.169808    1.393623   -0.109547   -0.004950   -0.006442   -0.028725
O    -2.335616   -1.194922    0.021467    0.002355   -0.009848    0.007673
O     0.193350    2.595741   -0.220573    0.000467   -0.000861    0.009552
H     2.113033   -1.518852   -0.269022    0.028604    0.115749    1.269553
H    -0.109742   -1.978473    0.993862   -0.014899   -0.097277   -0.027517
H    -1.919534    1.277382   -0.170134    0.051852    0.033554   -0.005559
H     2.350630    1.022826    0.481760   -0.045113    0.032304   -1.484671
H    -0.003299   -2.185767   -0.613966   -0.195870    0.066114   -0.054651
13
* Frequency(21)  979.9381
C     1.372037    0.519965   -0.097159   -0.018219    0.041359    0.233912
C     1.262716   -0.782995    0.161414    0.056433   -0.016682   -0.200881
N    -0.005391   -1.442973    0.111845   -0.046037   -0.021874    0.019429
C    -1.288900   -0.623519    0.018749   -0.002882    0.003507   -0.032267
N    -1.074158    0.705229   -0.099603    0.029386    0.004636    0.006667
C     0.169761    1.393562   -0.109820   -0.004950   -0.006442   -0.028725
O    -2.335594   -1.195016    0.021540    0.002355   -0.009848    0.007673
O     0.193354    2.595732   -0.220482    0.000467   -0.000861    0.009552
H     2.113305   -1.517750   -0.256943    0.028604    0.115749    1.269553
H    -0.109884   -1.979399    0.993600   -0.014899   -0.097277   -0.027517
H    -1.919041    1.277701   -0.170186    0.051852    0.033554   -0.005559
H     2.350201    1.023133    0.467634   -0.045113    0.032304   -1.484671
H    -0.005162   -2.185138   -0.614486   -0.195870    0.066114   -0.054651
13
* Frequency(21)  979.9381
C     1.371193    0.521879   -0.086334   -0.018219    0.041359    0.233912
C     1.265327   -0.783768    0.152116    0.056433   -0.016682   -0.200881
N    -0.007521   -1.443986    0.112744   -0.046037   -0.021874    0.019429
C    -1.289033   -0.623357    0.017256   -0.002882    0.003507   -0.032267
N    -1.072798    0.705443   -0.099295    0.029386    0.004636    0.006667
C     0.169532    1.393263   -0.111150   -0.004950   -0.006442   -0.028725
O    -2.335485   -1.195472    0.021895    0.002355   -0.009848    0.007673
O     0.193376    2.595693   -0.220040    0.000467   -0.000861    0.009552
H     2.114629   -1.512393   -0.198186    0.028604    0.115749    1.269553
H    -0.110573   -1.983901    0.992326   -0.014899   -0.097277   -0.027517
H    -1.916641    1.279254   -0.170444    0.051852    0.033554   -0.005559
H     2.348113    1.024629    0.398921   -0.045113    0.032304   -1.484671
H    -0.014228   -2.182078   -0.617016   -0.195870    0.066114   -0.054651
13
* Frequency(21)  979.9381
C     1.369772    0.525106   -0.068081   -0.018219    0.041359    0.233912
C     1.269731   -0.785069    0.136441    0.056433   -0.016682   -0.200881
N    -0.011114   -1.445693    0.114260   -0.046037   -0.021874    0.019429
C    -1.289258   -0.623083    0.014738   -0.002882    0.003507   -0.032267
N    -1.070505    0.705805   -0.098774    0.029386    0.004636    0.006667
C     0.169145    1.392761   -0.113391   -0.004950   -0.006442   -0.028725
O    -2.335301   -1.196240    0.022494    0.002355   -0.009848    0.007673
O     0.193412    2.595625   -0.219295    0.000467   -0.000861    0.009552
H     2.116861   -1.503361   -0.099118    0.028604    0.115749    1.269553
H    -0.111736   -1.991492    0.990179   -0.014899   -0.097277   -0.027517
H    -1.912595    1.281873   -0.170878    0.051852    0.033554   -0.005559
H     2.344593    1.027149    0.283066   -0.045113    0.032304   -1.484671
H    -0.029512   -2.176919   -0.621280   -0.195870    0.066114   -0.054651
13
* Frequency(21)  979.9381
C     1.367925    0.529297   -0.044378   -0.018219    0.041359    0.233912
C     1.275450   -0.786760    0.116086    0.056433   -0.016682   -0.200881
N    -0.015779   -1.447909    0.116229   -0.046037   -0.021874    0.019429
C    -1.289550   -0.622728    0.011468   -0.002882    0.003507   -0.032267
N    -1.067527    0.706275   -0.098099    0.029386    0.004636    0.006667
C     0.168644    1.392108   -0.116302   -0.004950   -0.006442   -0.028725
O    -2.335063   -1.197238    0.023271    0.002355   -0.009848    0.007673
O     0.193460    2.595538   -0.218327    0.000467   -0.000861    0.009552
H     2.119759   -1.491632    0.029525    0.028604    0.115749    1.269553
H    -0.113245   -2.001349    0.987391   -0.014899   -0.097277   -0.027517
H    -1.907341    1.285273   -0.171441    0.051852    0.033554   -0.005559
H     2.340022    1.030423    0.132625   -0.045113    0.032304   -1.484671
H    -0.049359   -2.170220   -0.626818   -0.195870    0.066114   -0.054651
13
* Frequency(21)  979.9381
C     1.365855    0.533997   -0.017795   -0.018219    0.041359    0.233912
C     1.281863   -0.788655    0.093257    0.056433   -0.016682   -0.200881
N    -0.021011   -1.450395    0.118437   -0.046037   -0.021874    0.019429
C    -1.289878   -0.622329    0.007801   -0.002882    0.003507   -0.032267
N    -1.064188    0.706802   -0.097341    0.029386    0.004636    0.006667
C     0.168081    1.391376   -0.119566   -0.004950   -0.006442   -0.028725
O    -2.334795   -1.198357    0.024143    0.002355   -0.009848    0.007673
O     0.193513    2.595440   -0.217241    0.000467   -0.000861    0.009552
H     2.123010   -1.478478    0.173803    0.028604    0.115749    1.269553
H    -0.114939   -2.012404    0.984263   -0.014899   -0.097277   -0.027517
H    -1.901448    1.289086   -0.172072    0.051852    0.033554   -0.005559
H     2.334895    1.034094   -0.036100   -0.045113    0.032304   -1.484671
H    -0.071619   -2.162707   -0.633029   -0.195870    0.066114   -0.054651
