13
* (null), Energy   -1000.0000000
C     1.365855    0.533997   -0.017795    0.003661    0.004160   -0.000312
C     1.281863   -0.788655    0.093257   -0.004254   -0.000225   -0.000065
N    -0.021011   -1.450395    0.118437   -0.013676   -0.121692    0.008272
C    -1.289878   -0.622329    0.007801    0.006887   -0.001015    0.000263
N    -1.064188    0.706802   -0.097341    0.000445    0.000710   -0.000037
C     0.168081    1.391376   -0.119566    0.000370   -0.002106    0.000181
O    -2.334795   -1.198357    0.024143   -0.002273   -0.000522   -0.000012
O     0.193513    2.595440   -0.217241   -0.000072    0.001068   -0.000078
H     2.123010   -1.478478    0.173803    0.009785   -0.007097    0.000845
H    -0.114939   -2.012404    0.984263    0.118565    0.713066   -1.184220
H    -1.901448    1.289086   -0.172072   -0.018744    0.017389   -0.002031
H     2.334895    1.034094   -0.036100   -0.030145   -0.012595    0.000237
H    -0.071619   -2.162707   -0.633029    0.062232    0.952018    1.071376
13
* Frequency(36) 3339.2489
C     1.366271    0.534470   -0.017831    0.003661    0.004160   -0.000312
C     1.281379   -0.788681    0.093249   -0.004254   -0.000225   -0.000065
N    -0.022565   -1.464225    0.119377   -0.013676   -0.121692    0.008272
C    -1.289095   -0.622445    0.007831    0.006887   -0.001015    0.000263
N    -1.064137    0.706882   -0.097345    0.000445    0.000710   -0.000037
C     0.168123    1.391137   -0.119546    0.000370   -0.002106    0.000181
O    -2.335053   -1.198416    0.024142   -0.002273   -0.000522   -0.000012
O     0.193505    2.595562   -0.217250   -0.000072    0.001068   -0.000078
H     2.124122   -1.479284    0.173899    0.009785   -0.007097    0.000845
H    -0.101464   -1.931368    0.849683    0.118565    0.713066   -1.184220
H    -1.903578    1.291062   -0.172303   -0.018744    0.017389   -0.002031
H     2.331469    1.032663   -0.036073   -0.030145   -0.012595    0.000237
H    -0.064547   -2.054515   -0.511272    0.062232    0.952018    1.071376
13
* Frequency(36) 3339.2489
C     1.366642    0.534892   -0.017862    0.003661    0.004160   -0.000312
C     1.280948   -0.788704    0.093243   -0.004254   -0.000225   -0.000065
N    -0.023951   -1.476556    0.120215   -0.013676   -0.121692    0.008272
C    -1.288397   -0.622548    0.007858    0.006887   -0.001015    0.000263
N    -1.064092    0.706954   -0.097349    0.000445    0.000710   -0.000037
C     0.168161    1.390923   -0.119528    0.000370   -0.002106    0.000181
O    -2.335284   -1.198469    0.024141   -0.002273   -0.000522   -0.000012
O     0.193497    2.595670   -0.217258   -0.000072    0.001068   -0.000078
H     2.125114   -1.480003    0.173985    0.009785   -0.007097    0.000845
H    -0.089450   -1.859113    0.729686    0.118565    0.713066   -1.184220
H    -1.905477    1.292824   -0.172509   -0.018744    0.017389   -0.002031
H     2.328414    1.031386   -0.036049   -0.030145   -0.012595    0.000237
H    -0.058241   -1.958047   -0.402710    0.062232    0.952018    1.071376
13
* Frequency(36) 3339.2489
C     1.366928    0.535216   -0.017887    0.003661    0.004160   -0.000312
C     1.280616   -0.788721    0.093238   -0.004254   -0.000225   -0.000065
N    -0.025018   -1.486052    0.120861   -0.013676   -0.121692    0.008272
C    -1.287860   -0.622627    0.007878    0.006887   -0.001015    0.000263
N    -1.064058    0.707010   -0.097352    0.000445    0.000710   -0.000037
C     0.168189    1.390759   -0.119513    0.000370   -0.002106    0.000181
O    -2.335461   -1.198510    0.024140   -0.002273   -0.000522   -0.000012
O     0.193492    2.595753   -0.217264   -0.000072    0.001068   -0.000078
H     2.125877   -1.480557    0.174051    0.009785   -0.007097    0.000845
H    -0.080198   -1.803470    0.637277    0.118565    0.713066   -1.184220
H    -1.906940    1.294181   -0.172668   -0.018744    0.017389   -0.002031
H     2.326062    1.030403   -0.036031   -0.030145   -0.012595    0.000237
H    -0.053385   -1.883757   -0.319107    0.062232    0.952018    1.071376
13
* Frequency(36) 3339.2489
C     1.367097    0.535409   -0.017901    0.003661    0.004160   -0.000312
C     1.280420   -0.788732    0.093235   -0.004254   -0.000225   -0.000065
N    -0.025651   -1.491684    0.121244   -0.013676   -0.121692    0.008272
C    -1.287541   -0.622674    0.007890    0.006887   -0.001015    0.000263
N    -1.064037    0.707043   -0.097354    0.000445    0.000710   -0.000037
C     0.168207    1.390661   -0.119505    0.000370   -0.002106    0.000181
O    -2.335566   -1.198534    0.024139   -0.002273   -0.000522   -0.000012
O     0.193488    2.595803   -0.217268   -0.000072    0.001068   -0.000078
H     2.126330   -1.480886    0.174090    0.009785   -0.007097    0.000845
H    -0.074711   -1.770468    0.582469    0.118565    0.713066   -1.184220
H    -1.907808    1.294986   -0.172762   -0.018744    0.017389   -0.002031
H     2.324667    1.029821   -0.036020   -0.030145   -0.012595    0.000237
H    -0.050504   -1.839696   -0.269521    0.062232    0.952018    1.071376
13
* Frequency(36) 3339.2489
C     1.367132    0.535448   -0.017904    0.003661    0.004160   -0.000312
C     1.280379   -0.788734    0.093234   -0.004254   -0.000225   -0.000065
N    -0.025781   -1.492842    0.121322   -0.013676   -0.121692    0.008272
C    -1.287475   -0.622683    0.007893    0.006887   -0.001015    0.000263
N    -1.064033    0.707049   -0.097354    0.000445    0.000710   -0.000037
C     0.168210    1.390641   -0.119503    0.000370   -0.002106    0.000181
O    -2.335588   -1.198539    0.024139   -0.002273   -0.000522   -0.000012
O     0.193488    2.595813   -0.217268   -0.000072    0.001068   -0.000078
H     2.126423   -1.480953    0.174098    0.009785   -0.007097    0.000845
H    -0.073582   -1.763683    0.571202    0.118565    0.713066   -1.184220
H    -1.907986    1.295151   -0.172781   -0.018744    0.017389   -0.002031
H     2.324380    1.029701   -0.036017   -0.030145   -0.012595    0.000237
H    -0.049912   -1.830638   -0.259328    0.062232    0.952018    1.071376
13
* Frequency(36) 3339.2489
C     1.367028    0.535331   -0.017895    0.003661    0.004160   -0.000312
C     1.280499   -0.788727    0.093236   -0.004254   -0.000225   -0.000065
N    -0.025394   -1.489400    0.121088   -0.013676   -0.121692    0.008272
C    -1.287670   -0.622655    0.007885    0.006887   -0.001015    0.000263
N    -1.064045    0.707029   -0.097353    0.000445    0.000710   -0.000037
C     0.168200    1.390701   -0.119508    0.000370   -0.002106    0.000181
O    -2.335524   -1.198524    0.024139   -0.002273   -0.000522   -0.000012
O     0.193490    2.595783   -0.217266   -0.000072    0.001068   -0.000078
H     2.126146   -1.480753    0.174074    0.009785   -0.007097    0.000845
H    -0.076936   -1.783852    0.604697    0.118565    0.713066   -1.184220
H    -1.907456    1.294659   -0.172723   -0.018744    0.017389   -0.002031
H     2.325233    1.030057   -0.036024   -0.030145   -0.012595    0.000237
H    -0.051672   -1.857565   -0.289631    0.062232    0.952018    1.071376
13
* Frequency(36) 3339.2489
C     1.366798    0.535069   -0.017876    0.003661    0.004160   -0.000312
C     1.280768   -0.788713    0.093240   -0.004254   -0.000225   -0.000065
N    -0.024532   -1.481731    0.120567   -0.013676   -0.121692    0.008272
C    -1.288104   -0.622591    0.007869    0.006887   -0.001015    0.000263
N    -1.064073    0.706985   -0.097351    0.000445    0.000710   -0.000037
C     0.168176    1.390834   -0.119520    0.000370   -0.002106    0.000181
O    -2.335380   -1.198492    0.024140   -0.002273   -0.000522   -0.000012
O     0.193494    2.595715   -0.217261   -0.000072    0.001068   -0.000078
H     2.125530   -1.480305    0.174021    0.009785   -0.007097    0.000845
H    -0.084408   -1.828787    0.679323    0.118565    0.713066   -1.184220
H    -1.906275    1.293564   -0.172595   -0.018744    0.017389   -0.002031
H     2.327132    1.030851   -0.036039   -0.030145   -0.012595    0.000237
H    -0.055594   -1.917559   -0.357146    0.062232    0.952018    1.071376
13
* Frequency(36) 3339.2489
C     1.366465    0.534690   -0.017847    0.003661    0.004160   -0.000312
C     1.281154   -0.788693    0.093246   -0.004254   -0.000225   -0.000065
N    -0.023289   -1.470667    0.119815   -0.013676   -0.121692    0.008272
C    -1.288730   -0.622498    0.007845    0.006887   -0.001015    0.000263
N    -1.064114    0.706920   -0.097347    0.000445    0.000710   -0.000037
C     0.168143    1.391025   -0.119536    0.000370   -0.002106    0.000181
O    -2.335174   -1.198444    0.024141   -0.002273   -0.000522   -0.000012
O     0.193501    2.595618   -0.217254   -0.000072    0.001068   -0.000078
H     2.124640   -1.479660    0.173944    0.009785   -0.007097    0.000845
H    -0.095188   -1.893620    0.786994    0.118565    0.713066   -1.184220
H    -1.904570    1.291983   -0.172411   -0.018744    0.017389   -0.002031
H     2.329873    1.031996   -0.036061   -0.030145   -0.012595    0.000237
H    -0.061252   -2.004118   -0.454557    0.062232    0.952018    1.071376
13
* Frequency(36) 3339.2489
C     1.366066    0.534237   -0.017813    0.003661    0.004160   -0.000312
C     1.281618   -0.788668    0.093253   -0.004254   -0.000225   -0.000065
N    -0.021799   -1.457406    0.118914   -0.013676   -0.121692    0.008272
C    -1.289481   -0.622388    0.007816    0.006887   -0.001015    0.000263
N    -1.064162    0.706843   -0.097343    0.000445    0.000710   -0.000037
C     0.168102    1.391255   -0.119556    0.000370   -0.002106    0.000181
O    -2.334926   -1.198387    0.024143   -0.002273   -0.000522   -0.000012
O     0.193509    2.595502   -0.217246   -0.000072    0.001068   -0.000078
H     2.123574   -1.478887    0.173852    0.009785   -0.007097    0.000845
H    -0.108108   -1.971326    0.916043    0.118565    0.713066   -1.184220
H    -1.902528    1.290088   -0.172189   -0.018744    0.017389   -0.002031
H     2.333158    1.033368   -0.036086   -0.030145   -0.012595    0.000237
H    -0.068034   -2.107863   -0.571309    0.062232    0.952018    1.071376
13
* Frequency(36) 3339.2489
C     1.365644    0.533758   -0.017777    0.003661    0.004160   -0.000312
C     1.282108   -0.788642    0.093260   -0.004254   -0.000225   -0.000065
N    -0.020223   -1.443385    0.117961   -0.013676   -0.121692    0.008272
C    -1.290274   -0.622271    0.007786    0.006887   -0.001015    0.000263
N    -1.064213    0.706761   -0.097339    0.000445    0.000710   -0.000037
C     0.168060    1.391497   -0.119577    0.000370   -0.002106    0.000181
O    -2.334664   -1.198327    0.024144   -0.002273   -0.000522   -0.000012
O     0.193517    2.595379   -0.217237   -0.000072    0.001068   -0.000078
H     2.122446   -1.478069    0.173755    0.009785   -0.007097    0.000845
H    -0.121769   -2.053482    1.052484    0.118565    0.713066   -1.184220
H    -1.900368    1.288084   -0.171955   -0.018744    0.017389   -0.002031
H     2.336631    1.034820   -0.036114   -0.030145   -0.012595    0.000237
H    -0.075204   -2.217550   -0.694749    0.062232    0.952018    1.071376
13
* Frequency(36) 3339.2489
C     1.365245    0.533304   -0.017743    0.003661    0.004160   -0.000312
C     1.282572   -0.788618    0.093268   -0.004254   -0.000225   -0.000065
N    -0.018732   -1.430123    0.117059   -0.013676   -0.121692    0.008272
C    -1.291025   -0.622160    0.007757    0.006887   -0.001015    0.000263
N    -1.064262    0.706683   -0.097335    0.000445    0.000710   -0.000037
C     0.168020    1.391727   -0.119596    0.000370   -0.002106    0.000181
O    -2.334416   -1.198270    0.024145   -0.002273   -0.000522   -0.000012
O     0.193525    2.595262   -0.217228   -0.000072    0.001068   -0.000078
H     2.121380   -1.477295    0.173663    0.009785   -0.007097    0.000845
H    -0.134689   -2.131188    1.181533    0.118565    0.713066   -1.184220
H    -1.898326    1.286189   -0.171734   -0.018744    0.017389   -0.002031
H     2.339916    1.036192   -0.036139   -0.030145   -0.012595    0.000237
H    -0.081986   -2.321295   -0.811500    0.062232    0.952018    1.071376
13
* Frequency(36) 3339.2489
C     1.364912    0.532926   -0.017715    0.003661    0.004160   -0.000312
C     1.282958   -0.788598    0.093273   -0.004254   -0.000225   -0.000065
N    -0.017489   -1.419059    0.116307   -0.013676   -0.121692    0.008272
C    -1.291651   -0.622068    0.007734    0.006887   -0.001015    0.000263
N    -1.064302    0.706619   -0.097332    0.000445    0.000710   -0.000037
C     0.167986    1.391918   -0.119613    0.000370   -0.002106    0.000181
O    -2.334210   -1.198223    0.024146   -0.002273   -0.000522   -0.000012
O     0.193531    2.595165   -0.217221   -0.000072    0.001068   -0.000078
H     2.120490   -1.476650    0.173586    0.009785   -0.007097    0.000845
H    -0.145470   -2.196021    1.289204    0.118565    0.713066   -1.184220
H    -1.896621    1.284608   -0.171549   -0.018744    0.017389   -0.002031
H     2.342657    1.037337   -0.036161   -0.030145   -0.012595    0.000237
H    -0.087644   -2.407854   -0.908912    0.062232    0.952018    1.071376
13
* Frequency(36) 3339.2489
C     1.364681    0.532664   -0.017695    0.003661    0.004160   -0.000312
C     1.283226   -0.788583    0.093277   -0.004254   -0.000225   -0.000065
N    -0.016627   -1.411390    0.115786   -0.013676   -0.121692    0.008272
C    -1.292085   -0.622004    0.007717    0.006887   -0.001015    0.000263
N    -1.064330    0.706574   -0.097329    0.000445    0.000710   -0.000037
C     0.167963    1.392051   -0.119624    0.000370   -0.002106    0.000181
O    -2.334066   -1.198190    0.024147   -0.002273   -0.000522   -0.000012
O     0.193536    2.595098   -0.217216   -0.000072    0.001068   -0.000078
H     2.119874   -1.476203    0.173533    0.009785   -0.007097    0.000845
H    -0.152941   -2.240956    1.363830    0.118565    0.713066   -1.184220
H    -1.895440    1.283513   -0.171421   -0.018744    0.017389   -0.002031
H     2.344557    1.038131   -0.036176   -0.030145   -0.012595    0.000237
H    -0.091566   -2.467848   -0.976427    0.062232    0.952018    1.071376
13
* Frequency(36) 3339.2489
C     1.364578    0.532546   -0.017687    0.003661    0.004160   -0.000312
C     1.283347   -0.788577    0.093279   -0.004254   -0.000225   -0.000065
N    -0.016240   -1.407948    0.115552   -0.013676   -0.121692    0.008272
C    -1.292280   -0.621976    0.007710    0.006887   -0.001015    0.000263
N    -1.064343    0.706554   -0.097328    0.000445    0.000710   -0.000037
C     0.167952    1.392111   -0.119629    0.000370   -0.002106    0.000181
O    -2.334002   -1.198175    0.024147   -0.002273   -0.000522   -0.000012
O     0.193538    2.595068   -0.217214   -0.000072    0.001068   -0.000078
H     2.119597   -1.476002    0.173509    0.009785   -0.007097    0.000845
H    -0.156295   -2.261125    1.397325    0.118565    0.713066   -1.184220
H    -1.894910    1.283021   -0.171364   -0.018744    0.017389   -0.002031
H     2.345409    1.038487   -0.036183   -0.030145   -0.012595    0.000237
H    -0.093326   -2.494775   -1.006729    0.062232    0.952018    1.071376
13
* Frequency(36) 3339.2489
C     1.364613    0.532586   -0.017690    0.003661    0.004160   -0.000312
C     1.283306   -0.788579    0.093279   -0.004254   -0.000225   -0.000065
N    -0.016370   -1.409106    0.115631   -0.013676   -0.121692    0.008272
C    -1.292214   -0.621985    0.007712    0.006887   -0.001015    0.000263
N    -1.064339    0.706561   -0.097329    0.000445    0.000710   -0.000037
C     0.167956    1.392091   -0.119628    0.000370   -0.002106    0.000181
O    -2.334024   -1.198180    0.024147   -0.002273   -0.000522   -0.000012
O     0.193537    2.595078   -0.217215   -0.000072    0.001068   -0.000078
H     2.119690   -1.476070    0.173517    0.009785   -0.007097    0.000845
H    -0.155167   -2.254340    1.386057    0.118565    0.713066   -1.184220
H    -1.895088    1.283186   -0.171383   -0.018744    0.017389   -0.002031
H     2.345123    1.038368   -0.036180   -0.030145   -0.012595    0.000237
H    -0.092734   -2.485717   -0.996536    0.062232    0.952018    1.071376
13
* Frequency(36) 3339.2489
C     1.364782    0.532778   -0.017704    0.003661    0.004160   -0.000312
C     1.283109   -0.788590    0.093276   -0.004254   -0.000225   -0.000065
N    -0.017003   -1.414738    0.116014   -0.013676   -0.121692    0.008272
C    -1.291895   -0.622032    0.007724    0.006887   -0.001015    0.000263
N    -1.064318    0.706594   -0.097330    0.000445    0.000710   -0.000037
C     0.167973    1.391993   -0.119619    0.000370   -0.002106    0.000181
O    -2.334129   -1.198204    0.024147   -0.002273   -0.000522   -0.000012
O     0.193534    2.595127   -0.217218   -0.000072    0.001068   -0.000078
H     2.120143   -1.476398    0.173556    0.009785   -0.007097    0.000845
H    -0.149679   -2.221338    1.331250    0.118565    0.713066   -1.184220
H    -1.895956    1.283991   -0.171477   -0.018744    0.017389   -0.002031
H     2.343727    1.037785   -0.036169   -0.030145   -0.012595    0.000237
H    -0.089853   -2.441656   -0.946951    0.062232    0.952018    1.071376
13
* Frequency(36) 3339.2489
C     1.365068    0.533103   -0.017728    0.003661    0.004160   -0.000312
C     1.282777   -0.788607    0.093271   -0.004254   -0.000225   -0.000065
N    -0.018071   -1.424234    0.116659   -0.013676   -0.121692    0.008272
C    -1.291358   -0.622111    0.007745    0.006887   -0.001015    0.000263
N    -1.064283    0.706649   -0.097333    0.000445    0.000710   -0.000037
C     0.168002    1.391829   -0.119605    0.000370   -0.002106    0.000181
O    -2.334306   -1.198245    0.024146   -0.002273   -0.000522   -0.000012
O     0.193528    2.595211   -0.217224   -0.000072    0.001068   -0.000078
H     2.120906   -1.476952    0.173622    0.009785   -0.007097    0.000845
H    -0.140427   -2.165695    1.238840    0.118565    0.713066   -1.184220
H    -1.897419    1.285348   -0.171636   -0.018744    0.017389   -0.002031
H     2.341375    1.036802   -0.036151   -0.030145   -0.012595    0.000237
H    -0.084997   -2.367366   -0.863347    0.062232    0.952018    1.071376
13
* Frequency(36) 3339.2489
C     1.365439    0.533525   -0.017760    0.003661    0.004160   -0.000312
C     1.282346   -0.788630    0.093264   -0.004254   -0.000225   -0.000065
N    -0.019456   -1.436565    0.117497   -0.013676   -0.121692    0.008272
C    -1.290660   -0.622214    0.007771    0.006887   -0.001015    0.000263
N    -1.064238    0.706721   -0.097337    0.000445    0.000710   -0.000037
C     0.168039    1.391615   -0.119587    0.000370   -0.002106    0.000181
O    -2.334537   -1.198298    0.024145   -0.002273   -0.000522   -0.000012
O     0.193521    2.595319   -0.217232   -0.000072    0.001068   -0.000078
H     2.121898   -1.477671    0.173707    0.009785   -0.007097    0.000845
H    -0.128413   -2.093440    1.118844    0.118565    0.713066   -1.184220
H    -1.899318    1.287110   -0.171842   -0.018744    0.017389   -0.002031
H     2.338321    1.035525   -0.036127   -0.030145   -0.012595    0.000237
H    -0.078691   -2.270898   -0.754785    0.062232    0.952018    1.071376
13
* Frequency(36) 3339.2489
C     1.365855    0.533997   -0.017795    0.003661    0.004160   -0.000312
C     1.281863   -0.788655    0.093257   -0.004254   -0.000225   -0.000065
N    -0.021011   -1.450395    0.118437   -0.013676   -0.121692    0.008272
C    -1.289878   -0.622329    0.007801    0.006887   -0.001015    0.000263
N    -1.064188    0.706802   -0.097341    0.000445    0.000710   -0.000037
C     0.168081    1.391376   -0.119566    0.000370   -0.002106    0.000181
O    -2.334795   -1.198357    0.024143   -0.002273   -0.000522   -0.000012
O     0.193513    2.595440   -0.217241   -0.000072    0.001068   -0.000078
H     2.123010   -1.478478    0.173803    0.009785   -0.007097    0.000845
H    -0.114939   -2.012404    0.984263    0.118565    0.713066   -1.184220
H    -1.901448    1.289086   -0.172072   -0.018744    0.017389   -0.002031
H     2.334895    1.034094   -0.036100   -0.030145   -0.012595    0.000237
H    -0.071619   -2.162707   -0.633029    0.062232    0.952018    1.071376
