13
Coordinates from ORCA-job Uracil_1 E -414.712297408585
  C           1.36616834573204      0.53444726759101     -0.01622358396330
  C           1.28399806773411     -0.78829812798164      0.09530309012233
  N          -0.02043392751878     -1.45403768559453      0.11780649638624
  C          -1.29600175250484     -0.62086548785696      0.01000485887287
  N          -1.06621616379365      0.70806813261827     -0.09690841473055
  C           0.16809128740567      1.39248734556435     -0.12143317506293
  O          -2.33998957763697     -1.19589571918589      0.03068073245332
  O           0.19600759710582      2.59527974644626     -0.22277246053871
  H           2.12705714961130     -1.47670964015749      0.17628107371841
  H          -0.11505089714630     -2.02105543949063      0.98260913380952
  H          -1.90301391376888      1.29203522497540     -0.17253509245022
  H           2.33534597329126      1.03504389758375     -0.03404425275498
  H          -0.06662218851079     -2.16302951451189     -0.64020840586200
