13
* (null), Energy   -1000.0000000
C     1.621188    0.403598    0.009016    0.080255   -0.446048    0.038750
C     1.539018   -0.919147    0.120543    0.096892   -0.463888    0.046194
N     0.234586   -1.584887    0.143046   -0.131968    0.340703   -0.045668
C    -1.040982   -0.751715    0.035244    0.237431    0.506476   -0.055153
N    -0.811196    0.577219   -0.071669   -0.110820    0.391551   -0.033115
C     0.423111    1.261638   -0.096194   -0.043937   -0.190762   -0.001149
O    -2.084970   -1.326745    0.055920    0.576725   -0.009599    0.026011
O     0.451027    2.464431   -0.197533   -0.562461   -0.196022    0.007095
H     2.382077   -1.607559    0.201521   -0.139152   -0.753267    0.130096
H     0.139969   -2.151905    1.007849   -0.627569    0.441333   -0.041482
H    -1.647994    1.161186   -0.147295    0.021874    0.595147    0.049136
H     2.590366    0.904195   -0.008805    0.076658   -0.438060    0.082341
H     0.188398   -2.293879   -0.614969   -0.600901    0.323749    0.007920
13
* Frequency(12)  544.3643
C     1.630309    0.352907    0.013420    0.080255   -0.446048    0.038750
C     1.550029   -0.971866    0.125792    0.096892   -0.463888    0.046194
N     0.219588   -1.546168    0.137856   -0.131968    0.340703   -0.045668
C    -1.013999   -0.694156    0.028977    0.237431    0.506476   -0.055153
N    -0.823790    0.621717   -0.075432   -0.110820    0.391551   -0.033115
C     0.418118    1.239959   -0.096324   -0.043937   -0.190762   -0.001149
O    -2.019428   -1.327836    0.058876    0.576725   -0.009599    0.026011
O     0.387107    2.442154   -0.196727   -0.562461   -0.196022    0.007095
H     2.366263   -1.693164    0.216305   -0.139152   -0.753267    0.130096
H     0.068649   -2.101749    1.003135   -0.627569    0.441333   -0.041482
H    -1.645508    1.228821   -0.141711    0.021874    0.595147    0.049136
H     2.599078    0.854412    0.000553    0.076658   -0.438060    0.082341
H     0.120108   -2.257086   -0.614069   -0.600901    0.323749    0.007920
13
* Frequency(12)  544.3643
C     1.638441    0.307709    0.017346    0.080255   -0.446048    0.038750
C     1.559847   -1.018871    0.130473    0.096892   -0.463888    0.046194
N     0.206216   -1.511644    0.133229   -0.131968    0.340703   -0.045668
C    -0.989940   -0.642835    0.023388    0.237431    0.506476   -0.055153
N    -0.835020    0.661393   -0.078788   -0.110820    0.391551   -0.033115
C     0.413666    1.220629   -0.096441   -0.043937   -0.190762   -0.001149
O    -1.960989   -1.328808    0.061512    0.576725   -0.009599    0.026011
O     0.330113    2.422291   -0.196008   -0.562461   -0.196022    0.007095
H     2.352163   -1.769492    0.229488   -0.139152   -0.753267    0.130096
H     0.005058   -2.057029    0.998931   -0.627569    0.441333   -0.041482
H    -1.643292    1.289128   -0.136732    0.021874    0.595147    0.049136
H     2.606845    0.810023    0.008896    0.076658   -0.438060    0.082341
H     0.059219   -2.224281   -0.613266   -0.600901    0.323749    0.007920
13
* Frequency(12)  544.3643
C     1.644704    0.272902    0.020370    0.080255   -0.446048    0.038750
C     1.567408   -1.055070    0.134078    0.096892   -0.463888    0.046194
N     0.195918   -1.485058    0.129665   -0.131968    0.340703   -0.045668
C    -0.971413   -0.603313    0.019084    0.237431    0.506476   -0.055153
N    -0.843667    0.691947   -0.081372   -0.110820    0.391551   -0.033115
C     0.410237    1.205743   -0.096530   -0.043937   -0.190762   -0.001149
O    -1.915985   -1.329558    0.063542    0.576725   -0.009599    0.026011
O     0.286222    2.406994   -0.195454   -0.562461   -0.196022    0.007095
H     2.341304   -1.828272    0.239640   -0.139152   -0.753267    0.130096
H    -0.043914   -2.022590    0.995694   -0.627569    0.441333   -0.041482
H    -1.641585    1.335569   -0.132898    0.021874    0.595147    0.049136
H     2.612827    0.775840    0.015322    0.076658   -0.438060    0.082341
H     0.012329   -2.199018   -0.612648   -0.600901    0.323749    0.007920
13
* Frequency(12)  544.3643
C     1.648418    0.252258    0.022164    0.080255   -0.446048    0.038750
C     1.571892   -1.076540    0.136216    0.096892   -0.463888    0.046194
N     0.189810   -1.469290    0.127551   -0.131968    0.340703   -0.045668
C    -0.960424   -0.579872    0.016532    0.237431    0.506476   -0.055153
N    -0.848796    0.710068   -0.082904   -0.110820    0.391551   -0.033115
C     0.408204    1.196915   -0.096583   -0.043937   -0.190762   -0.001149
O    -1.889293   -1.330002    0.064746    0.576725   -0.009599    0.026011
O     0.260190    2.397922   -0.195126   -0.562461   -0.196022    0.007095
H     2.334864   -1.863135    0.245661   -0.139152   -0.753267    0.130096
H    -0.072959   -2.002165    0.993774   -0.627569    0.441333   -0.041482
H    -1.640573    1.363114   -0.130624    0.021874    0.595147    0.049136
H     2.616375    0.755565    0.019133    0.076658   -0.438060    0.082341
H    -0.015482   -2.184034   -0.612282   -0.600901    0.323749    0.007920
13
* Frequency(12)  544.3643
C     1.649182    0.248015    0.022532    0.080255   -0.446048    0.038750
C     1.572814   -1.080953    0.136655    0.096892   -0.463888    0.046194
N     0.188555   -1.466048    0.127117   -0.131968    0.340703   -0.045668
C    -0.958165   -0.575053    0.016007    0.237431    0.506476   -0.055153
N    -0.849851    0.713794   -0.083220   -0.110820    0.391551   -0.033115
C     0.407786    1.195100   -0.096594   -0.043937   -0.190762   -0.001149
O    -1.883806   -1.330093    0.064993    0.576725   -0.009599    0.026011
O     0.254838    2.396057   -0.195058   -0.562461   -0.196022    0.007095
H     2.333540   -1.870302    0.246899   -0.139152   -0.753267    0.130096
H    -0.078930   -1.997966    0.993380   -0.627569    0.441333   -0.041482
H    -1.640364    1.368776   -0.130157    0.021874    0.595147    0.049136
H     2.617104    0.751398    0.019916    0.076658   -0.438060    0.082341
H    -0.021199   -2.180954   -0.612206   -0.600901    0.323749    0.007920
13
* Frequency(12)  544.3643
C     1.646912    0.260631    0.021436    0.080255   -0.446048    0.038750
C     1.570074   -1.067833    0.135349    0.096892   -0.463888    0.046194
N     0.192287   -1.475684    0.128409   -0.131968    0.340703   -0.045668
C    -0.964880   -0.589379    0.017567    0.237431    0.506476   -0.055153
N    -0.846716    0.702719   -0.082283   -0.110820    0.391551   -0.033115
C     0.409028    1.200495   -0.096562   -0.043937   -0.190762   -0.001149
O    -1.900118   -1.329822    0.064257    0.576725   -0.009599    0.026011
O     0.270747    2.401601   -0.195259   -0.562461   -0.196022    0.007095
H     2.337476   -1.848996    0.243219   -0.139152   -0.753267    0.130096
H    -0.061180   -2.010448    0.994553   -0.627569    0.441333   -0.041482
H    -1.640983    1.351943   -0.131546    0.021874    0.595147    0.049136
H     2.614936    0.763788    0.017587    0.076658   -0.438060    0.082341
H    -0.004204   -2.190111   -0.612430   -0.600901    0.323749    0.007920
13
* Frequency(12)  544.3643
C     1.641854    0.288739    0.018994    0.080255   -0.446048    0.038750
C     1.563968   -1.038600    0.132438    0.096892   -0.463888    0.046194
N     0.200604   -1.497155    0.131286   -0.131968    0.340703   -0.045668
C    -0.979843   -0.621295    0.021042    0.237431    0.506476   -0.055153
N    -0.839733    0.678045   -0.080196   -0.110820    0.391551   -0.033115
C     0.411797    1.212516   -0.096489   -0.043937   -0.190762   -0.001149
O    -1.936461   -1.329217    0.062618    0.576725   -0.009599    0.026011
O     0.306192    2.413954   -0.195706   -0.562461   -0.196022    0.007095
H     2.346245   -1.801528    0.235021   -0.139152   -0.753267    0.130096
H    -0.021632   -2.038260    0.997167   -0.627569    0.441333   -0.041482
H    -1.642362    1.314438   -0.134643    0.021874    0.595147    0.049136
H     2.610105    0.791393    0.012398    0.076658   -0.438060    0.082341
H     0.033664   -2.210512   -0.612929   -0.600901    0.323749    0.007920
13
* Frequency(12)  544.3643
C     1.634557    0.329295    0.015471    0.080255   -0.446048    0.038750
C     1.555158   -0.996422    0.128238    0.096892   -0.463888    0.046194
N     0.212602   -1.528132    0.135439   -0.131968    0.340703   -0.045668
C    -1.001430   -0.667345    0.026057    0.237431    0.506476   -0.055153
N    -0.829657    0.642444   -0.077185   -0.110820    0.391551   -0.033115
C     0.415792    1.229861   -0.096385   -0.043937   -0.190762   -0.001149
O    -1.988898   -1.328344    0.060253    0.576725   -0.009599    0.026011
O     0.357332    2.431777   -0.196351   -0.562461   -0.196022    0.007095
H     2.358897   -1.733039    0.223192   -0.139152   -0.753267    0.130096
H     0.035427   -2.078387    1.000939   -0.627569    0.441333   -0.041482
H    -1.644350    1.260327   -0.139110    0.021874    0.595147    0.049136
H     2.603136    0.831222    0.004912    0.076658   -0.438060    0.082341
H     0.088299   -2.239948   -0.613650   -0.600901    0.323749    0.007920
13
* Frequency(12)  544.3643
C     1.625812    0.377902    0.011248    0.080255   -0.446048    0.038750
C     1.544600   -0.945871    0.123204    0.096892   -0.463888    0.046194
N     0.226983   -1.565260    0.140415   -0.131968    0.340703   -0.045668
C    -1.027304   -0.722537    0.032067    0.237431    0.506476   -0.055153
N    -0.817580    0.599776   -0.073577   -0.110820    0.391551   -0.033115
C     0.420580    1.250649   -0.096260   -0.043937   -0.190762   -0.001149
O    -2.051746   -1.327298    0.057419    0.576725   -0.009599    0.026011
O     0.418625    2.453138   -0.197124   -0.562461   -0.196022    0.007095
H     2.374061   -1.650953    0.209015   -0.139152   -0.753267    0.130096
H     0.103816   -2.126480    1.005459   -0.627569    0.441333   -0.041482
H    -1.646734    1.195471   -0.144465    0.021874    0.595147    0.049136
H     2.594782    0.878959   -0.004061    0.076658   -0.438060    0.082341
H     0.153781   -2.275228   -0.614513   -0.600901    0.323749    0.007920
13
* Frequency(12)  544.3643
C     1.616565    0.429294    0.006784    0.080255   -0.446048    0.038750
C     1.533436   -0.892424    0.117882    0.096892   -0.463888    0.046194
N     0.242188   -1.604514    0.145677   -0.131968    0.340703   -0.045668
C    -1.054660   -0.780892    0.038422    0.237431    0.506476   -0.055153
N    -0.804812    0.554662   -0.069761   -0.110820    0.391551   -0.033115
C     0.425642    1.272628   -0.096127   -0.043937   -0.190762   -0.001149
O    -2.118194   -1.326192    0.054422    0.576725   -0.009599    0.026011
O     0.483430    2.475723   -0.197942   -0.562461   -0.196022    0.007095
H     2.390093   -1.564164    0.194026   -0.139152   -0.753267    0.130096
H     0.176122   -2.177329    1.010238   -0.627569    0.441333   -0.041482
H    -1.649254    1.126901   -0.150126    0.021874    0.595147    0.049136
H     2.585950    0.929431   -0.013548    0.076658   -0.438060    0.082341
H     0.223014   -2.312529   -0.615425   -0.600901    0.323749    0.007920
13
* Frequency(12)  544.3643
C     1.607819    0.477902    0.002561    0.080255   -0.446048    0.038750
C     1.522877   -0.841872    0.112848    0.096892   -0.463888    0.046194
N     0.256569   -1.641642    0.150654   -0.131968    0.340703   -0.045668
C    -1.080534   -0.836084    0.044432    0.237431    0.506476   -0.055153
N    -0.792736    0.511994   -0.066152   -0.110820    0.391551   -0.033115
C     0.430430    1.293416   -0.096002   -0.043937   -0.190762   -0.001149
O    -2.181041   -1.325146    0.051587    0.576725   -0.009599    0.026011
O     0.544723    2.497084   -0.198715   -0.562461   -0.196022    0.007095
H     2.405257   -1.482078    0.179849   -0.139152   -0.753267    0.130096
H     0.244510   -2.225423    1.014759   -0.627569    0.441333   -0.041482
H    -1.651638    1.062046   -0.155481    0.021874    0.595147    0.049136
H     2.577596    0.977167   -0.022521    0.076658   -0.438060    0.082341
H     0.288497   -2.347809   -0.616288   -0.600901    0.323749    0.007920
13
* Frequency(12)  544.3643
C     1.600522    0.518457   -0.000962    0.080255   -0.446048    0.038750
C     1.514068   -0.799695    0.108648    0.096892   -0.463888    0.046194
N     0.268568   -1.672619    0.154806   -0.131968    0.340703   -0.045668
C    -1.102121   -0.882134    0.049447    0.237431    0.506476   -0.055153
N    -0.782660    0.476393   -0.063142   -0.110820    0.391551   -0.033115
C     0.434425    1.310760   -0.095898   -0.043937   -0.190762   -0.001149
O    -2.233478   -1.324273    0.049222    0.576725   -0.009599    0.026011
O     0.595863    2.514907   -0.199360   -0.562461   -0.196022    0.007095
H     2.417909   -1.413590    0.168021   -0.139152   -0.753267    0.130096
H     0.301570   -2.265549    1.018530   -0.627569    0.441333   -0.041482
H    -1.653627    1.007934   -0.159948    0.021874    0.595147    0.049136
H     2.570626    1.016997   -0.030008    0.076658   -0.438060    0.082341
H     0.343132   -2.377245   -0.617008   -0.600901    0.323749    0.007920
13
* Frequency(12)  544.3643
C     1.595465    0.546566   -0.003404    0.080255   -0.446048    0.038750
C     1.507962   -0.770462    0.105737    0.096892   -0.463888    0.046194
N     0.276884   -1.694089    0.157684   -0.131968    0.340703   -0.045668
C    -1.117083   -0.914051    0.052922    0.237431    0.506476   -0.055153
N    -0.775676    0.451719   -0.061055   -0.110820    0.391551   -0.033115
C     0.437194    1.322781   -0.095825   -0.043937   -0.190762   -0.001149
O    -2.269822   -1.323668    0.047583    0.576725   -0.009599    0.026011
O     0.631308    2.527260   -0.199807   -0.562461   -0.196022    0.007095
H     2.426678   -1.366121    0.159822   -0.139152   -0.753267    0.130096
H     0.341118   -2.293361    1.021145   -0.627569    0.441333   -0.041482
H    -1.655005    0.970429   -0.163045    0.021874    0.595147    0.049136
H     2.565795    1.044602   -0.035196    0.076658   -0.438060    0.082341
H     0.380999   -2.397647   -0.617507   -0.600901    0.323749    0.007920
13
* Frequency(12)  544.3643
C     1.593195    0.559182   -0.004500    0.080255   -0.446048    0.038750
C     1.505221   -0.757341    0.104430    0.096892   -0.463888    0.046194
N     0.280617   -1.703726    0.158975   -0.131968    0.340703   -0.045668
C    -1.123799   -0.928376    0.054482    0.237431    0.506476   -0.055153
N    -0.772542    0.440644   -0.060118   -0.110820    0.391551   -0.033115
C     0.438437    1.328177   -0.095793   -0.043937   -0.190762   -0.001149
O    -2.286134   -1.323397    0.046848    0.576725   -0.009599    0.026011
O     0.647216    2.532804   -0.200008   -0.562461   -0.196022    0.007095
H     2.430614   -1.344816    0.156143   -0.139152   -0.753267    0.130096
H     0.358868   -2.305844    1.022318   -0.627569    0.441333   -0.041482
H    -1.655624    0.953596   -0.164434    0.021874    0.595147    0.049136
H     2.563627    1.056992   -0.037525    0.076658   -0.438060    0.082341
H     0.397995   -2.406804   -0.617731   -0.600901    0.323749    0.007920
13
* Frequency(12)  544.3643
C     1.593958    0.554938   -0.004132    0.080255   -0.446048    0.038750
C     1.506143   -0.761755    0.104870    0.096892   -0.463888    0.046194
N     0.279361   -1.700484    0.158541   -0.131968    0.340703   -0.045668
C    -1.121540   -0.923557    0.053957    0.237431    0.506476   -0.055153
N    -0.773596    0.444370   -0.060433   -0.110820    0.391551   -0.033115
C     0.438018    1.326362   -0.095804   -0.043937   -0.190762   -0.001149
O    -2.280647   -1.323488    0.047095    0.576725   -0.009599    0.026011
O     0.641865    2.530939   -0.199940   -0.562461   -0.196022    0.007095
H     2.429290   -1.351983    0.157380   -0.139152   -0.753267    0.130096
H     0.352897   -2.301645    1.021923   -0.627569    0.441333   -0.041482
H    -1.655416    0.959259   -0.163967    0.021874    0.595147    0.049136
H     2.564356    1.052824   -0.036742    0.076658   -0.438060    0.082341
H     0.392277   -2.403723   -0.617656   -0.600901    0.323749    0.007920
13
* Frequency(12)  544.3643
C     1.597673    0.534294   -0.002338    0.080255   -0.446048    0.038750
C     1.510628   -0.783224    0.107007    0.096892   -0.463888    0.046194
N     0.273254   -1.684716    0.156427   -0.131968    0.340703   -0.045668
C    -1.110551   -0.900116    0.051405    0.237431    0.506476   -0.055153
N    -0.778725    0.462491   -0.061966   -0.110820    0.391551   -0.033115
C     0.435985    1.317533   -0.095857   -0.043937   -0.190762   -0.001149
O    -2.253955   -1.323932    0.048299    0.576725   -0.009599    0.026011
O     0.615833    2.521867   -0.199612   -0.562461   -0.196022    0.007095
H     2.422850   -1.386845    0.163401   -0.139152   -0.753267    0.130096
H     0.323852   -2.281219    1.020003   -0.627569    0.441333   -0.041482
H    -1.654403    0.986803   -0.161693    0.021874    0.595147    0.049136
H     2.567904    1.032550   -0.032931    0.076658   -0.438060    0.082341
H     0.364467   -2.388740   -0.617289   -0.600901    0.323749    0.007920
13
* Frequency(12)  544.3643
C     1.603935    0.499487    0.000686    0.080255   -0.446048    0.038750
C     1.518189   -0.819423    0.110612    0.096892   -0.463888    0.046194
N     0.262956   -1.658129    0.152864   -0.131968    0.340703   -0.045668
C    -1.092024   -0.860594    0.047101    0.237431    0.506476   -0.055153
N    -0.787373    0.493045   -0.064550   -0.110820    0.391551   -0.033115
C     0.432556    1.302647   -0.095947   -0.043937   -0.190762   -0.001149
O    -2.208951   -1.324681    0.050329    0.576725   -0.009599    0.026011
O     0.571942    2.506570   -0.199058   -0.562461   -0.196022    0.007095
H     2.411991   -1.445626    0.173553   -0.139152   -0.753267    0.130096
H     0.274880   -2.246780    1.016766   -0.627569    0.441333   -0.041482
H    -1.652696    1.033245   -0.157859    0.021874    0.595147    0.049136
H     2.573886    0.998366   -0.026506    0.076658   -0.438060    0.082341
H     0.317576   -2.363476   -0.616671   -0.600901    0.323749    0.007920
13
* Frequency(12)  544.3643
C     1.612068    0.454289    0.004612    0.080255   -0.446048    0.038750
C     1.528007   -0.866429    0.115293    0.096892   -0.463888    0.046194
N     0.249583   -1.623606    0.148236   -0.131968    0.340703   -0.045668
C    -1.067965   -0.809273    0.041512    0.237431    0.506476   -0.055153
N    -0.798602    0.532721   -0.067905   -0.110820    0.391551   -0.033115
C     0.428104    1.283317   -0.096063   -0.043937   -0.190762   -0.001149
O    -2.150512   -1.325654    0.052964    0.576725   -0.009599    0.026011
O     0.514948    2.486708   -0.198339   -0.562461   -0.196022    0.007095
H     2.397891   -1.521954    0.186736   -0.139152   -0.753267    0.130096
H     0.211289   -2.202060    1.012563   -0.627569    0.441333   -0.041482
H    -1.650480    1.093551   -0.152880    0.021874    0.595147    0.049136
H     2.581654    0.953978   -0.018162    0.076658   -0.438060    0.082341
H     0.256687   -2.330671   -0.615869   -0.600901    0.323749    0.007920
13
* Frequency(12)  544.3643
C     1.621188    0.403598    0.009016    0.080255   -0.446048    0.038750
C     1.539018   -0.919147    0.120543    0.096892   -0.463888    0.046194
N     0.234586   -1.584887    0.143046   -0.131968    0.340703   -0.045668
C    -1.040982   -0.751715    0.035244    0.237431    0.506476   -0.055153
N    -0.811196    0.577219   -0.071669   -0.110820    0.391551   -0.033115
C     0.423111    1.261638   -0.096194   -0.043937   -0.190762   -0.001149
O    -2.084970   -1.326745    0.055920    0.576725   -0.009599    0.026011
O     0.451027    2.464431   -0.197533   -0.562461   -0.196022    0.007095
H     2.382077   -1.607559    0.201521   -0.139152   -0.753267    0.130096
H     0.139969   -2.151905    1.007849   -0.627569    0.441333   -0.041482
H    -1.647994    1.161186   -0.147295    0.021874    0.595147    0.049136
H     2.590366    0.904195   -0.008805    0.076658   -0.438060    0.082341
H     0.188398   -2.293879   -0.614969   -0.600901    0.323749    0.007920
