13
* (null), Energy   -1000.0000000
C     1.621188    0.403598    0.009016    0.133887   -0.150743    0.012753
C     1.539018   -0.919147    0.120543    0.379726   -0.223406    0.025012
N     0.234586   -1.584887    0.143046   -0.235215    0.417220   -0.041057
C    -1.040982   -0.751715    0.035244    0.255850   -0.356456    0.034244
N    -0.811196    0.577219   -0.071669   -0.124199   -0.335131    0.017803
C     0.423111    1.261638   -0.096194   -0.239530    0.210791   -0.011185
O    -2.084970   -1.326745    0.055920   -0.078865    0.118432   -0.011484
O     0.451027    2.464431   -0.197533    0.093973    0.277408   -0.024760
H     2.382077   -1.607559    0.201521   -0.195505   -0.948593    0.108254
H     0.139969   -2.151905    1.007849   -0.393698    0.340641   -0.108369
H    -1.647994    1.161186   -0.147295   -0.620540   -1.045562    0.134738
H     2.590366    0.904195   -0.008805    0.031707    0.078255    0.001232
H     0.188398   -2.293879   -0.614969   -0.381918    0.345728    0.037779
13
* Frequency(18)  865.9959
C     1.636404    0.386467    0.010465    0.133887   -0.150743    0.012753
C     1.582172   -0.944536    0.123385    0.379726   -0.223406    0.025012
N     0.207855   -1.537472    0.138380   -0.235215    0.417220   -0.041057
C    -1.011906   -0.792224    0.039136    0.255850   -0.356456    0.034244
N    -0.825311    0.539133   -0.069646   -0.124199   -0.335131    0.017803
C     0.395890    1.285593   -0.097465   -0.239530    0.210791   -0.011185
O    -2.093932   -1.313286    0.054615   -0.078865    0.118432   -0.011484
O     0.461707    2.495957   -0.200347    0.093973    0.277408   -0.024760
H     2.359859   -1.715361    0.213823   -0.195505   -0.948593    0.108254
H     0.095227   -2.113192    0.995533   -0.393698    0.340641   -0.108369
H    -1.718515    1.042363   -0.131983   -0.620540   -1.045562    0.134738
H     2.593969    0.913088   -0.008665    0.031707    0.078255    0.001232
H     0.144995   -2.254588   -0.610675   -0.381918    0.345728    0.037779
13
* Frequency(18)  865.9959
C     1.649970    0.371192    0.011758    0.133887   -0.150743    0.012753
C     1.620649   -0.967174    0.125920    0.379726   -0.223406    0.025012
N     0.184021   -1.495195    0.134220   -0.235215    0.417220   -0.041057
C    -0.985981   -0.828343    0.042606    0.255850   -0.356456    0.034244
N    -0.837896    0.505174   -0.067842   -0.124199   -0.335131    0.017803
C     0.371618    1.306953   -0.098598   -0.239530    0.210791   -0.011185
O    -2.101924   -1.301285    0.053452   -0.078865    0.118432   -0.011484
O     0.471229    2.524066   -0.202856    0.093973    0.277408   -0.024760
H     2.340048   -1.811482    0.224793   -0.195505   -0.948593    0.108254
H     0.055334   -2.078675    0.984552   -0.393698    0.340641   -0.108369
H    -1.781394    0.936417   -0.118330   -0.620540   -1.045562    0.134738
H     2.597182    0.921018   -0.008540    0.031707    0.078255    0.001232
H     0.106295   -2.219556   -0.606847   -0.381918    0.345728    0.037779
13
* Frequency(18)  865.9959
C     1.660418    0.359429    0.012753    0.133887   -0.150743    0.012753
C     1.650281   -0.984607    0.127872    0.379726   -0.223406    0.025012
N     0.165666   -1.462638    0.131016   -0.235215    0.417220   -0.041057
C    -0.966016   -0.856159    0.045278    0.255850   -0.356456    0.034244
N    -0.847588    0.479023   -0.066452   -0.124199   -0.335131    0.017803
C     0.352927    1.323402   -0.099471   -0.239530    0.210791   -0.011185
O    -2.108078   -1.292043    0.052556   -0.078865    0.118432   -0.011484
O     0.478562    2.545713   -0.204788    0.093973    0.277408   -0.024760
H     2.324792   -1.885504    0.233240   -0.195505   -0.948593    0.108254
H     0.024612   -2.052094    0.976096   -0.393698    0.340641   -0.108369
H    -1.829817    0.854828   -0.107816   -0.620540   -1.045562    0.134738
H     2.599656    0.927124   -0.008444    0.031707    0.078255    0.001232
H     0.076493   -2.192577   -0.603899   -0.381918    0.345728    0.037779
13
* Frequency(18)  865.9959
C     1.666615    0.352452    0.013343    0.133887   -0.150743    0.012753
C     1.667855   -0.994947    0.129029    0.379726   -0.223406    0.025012
N     0.154780   -1.443328    0.129116   -0.235215    0.417220   -0.041057
C    -0.954175   -0.872656    0.046863    0.255850   -0.356456    0.034244
N    -0.853336    0.463512   -0.065628   -0.124199   -0.335131    0.017803
C     0.341841    1.333157   -0.099989   -0.239530    0.210791   -0.011185
O    -2.111728   -1.286562    0.052024   -0.078865    0.118432   -0.011484
O     0.482912    2.558552   -0.205934    0.093973    0.277408   -0.024760
H     2.315744   -1.929407    0.238250   -0.195505   -0.948593    0.108254
H     0.006391   -2.036328    0.971080   -0.393698    0.340641   -0.108369
H    -1.858537    0.806437   -0.101580   -0.620540   -1.045562    0.134738
H     2.601124    0.930746   -0.008387    0.031707    0.078255    0.001232
H     0.058817   -2.176576   -0.602151   -0.381918    0.345728    0.037779
13
* Frequency(18)  865.9959
C     1.667888    0.351018    0.013464    0.133887   -0.150743    0.012753
C     1.671468   -0.997072    0.129267    0.379726   -0.223406    0.025012
N     0.152542   -1.439359    0.128725   -0.235215    0.417220   -0.041057
C    -0.951740   -0.876048    0.047189    0.255850   -0.356456    0.034244
N    -0.854517    0.460324   -0.065459   -0.124199   -0.335131    0.017803
C     0.339562    1.335163   -0.100095   -0.239530    0.210791   -0.011185
O    -2.112478   -1.285435    0.051915   -0.078865    0.118432   -0.011484
O     0.483806    2.561192   -0.206169    0.093973    0.277408   -0.024760
H     2.313884   -1.938432    0.239280   -0.195505   -0.948593    0.108254
H     0.002645   -2.033087    0.970049   -0.393698    0.340641   -0.108369
H    -1.864441    0.796489   -0.100298   -0.620540   -1.045562    0.134738
H     2.601425    0.931491   -0.008375    0.031707    0.078255    0.001232
H     0.055183   -2.173287   -0.601791   -0.381918    0.345728    0.037779
13
* Frequency(18)  865.9959
C     1.664102    0.355282    0.013104    0.133887   -0.150743    0.012753
C     1.660728   -0.990753    0.128560    0.379726   -0.223406    0.025012
N     0.159195   -1.451159    0.129887   -0.235215    0.417220   -0.041057
C    -0.958977   -0.865966    0.046220    0.255850   -0.356456    0.034244
N    -0.851005    0.469803   -0.065963   -0.124199   -0.335131    0.017803
C     0.346337    1.329201   -0.099779   -0.239530    0.210791   -0.011185
O    -2.110248   -1.288785    0.052240   -0.078865    0.118432   -0.011484
O     0.481148    2.553346   -0.205469    0.093973    0.277408   -0.024760
H     2.319414   -1.911602    0.236218   -0.195505   -0.948593    0.108254
H     0.013781   -2.042722    0.973114   -0.393698    0.340641   -0.108369
H    -1.846890    0.826062   -0.104109   -0.620540   -1.045562    0.134738
H     2.600529    0.929277   -0.008410    0.031707    0.078255    0.001232
H     0.065985   -2.183066   -0.602860   -0.381918    0.345728    0.037779
13
* Frequency(18)  865.9959
C     1.655664    0.364781    0.012300    0.133887   -0.150743    0.012753
C     1.636799   -0.976675    0.126983    0.379726   -0.223406    0.025012
N     0.174017   -1.477451    0.132474   -0.235215    0.417220   -0.041057
C    -0.975100   -0.843503    0.044062    0.255850   -0.356456    0.034244
N    -0.843178    0.490922   -0.067084   -0.124199   -0.335131    0.017803
C     0.361431    1.315917   -0.099074   -0.239530    0.210791   -0.011185
O    -2.105278   -1.296248    0.052963   -0.078865    0.118432   -0.011484
O     0.475226    2.535864   -0.203909    0.093973    0.277408   -0.024760
H     2.331734   -1.851825    0.229397   -0.195505   -0.948593    0.108254
H     0.038590   -2.064188    0.979943   -0.393698    0.340641   -0.108369
H    -1.807785    0.891950   -0.112600   -0.620540   -1.045562    0.134738
H     2.598530    0.924346   -0.008487    0.031707    0.078255    0.001232
H     0.090053   -2.204852   -0.605241   -0.381918    0.345728    0.037779
13
* Frequency(18)  865.9959
C     1.643491    0.378487    0.011140    0.133887   -0.150743    0.012753
C     1.602273   -0.956363    0.124709    0.379726   -0.223406    0.025012
N     0.195403   -1.515386    0.136207   -0.235215    0.417220   -0.041057
C    -0.998362   -0.811094    0.040949    0.255850   -0.356456    0.034244
N    -0.831886    0.521392   -0.068703   -0.124199   -0.335131    0.017803
C     0.383210    1.296752   -0.098057   -0.239530    0.210791   -0.011185
O    -2.098107   -1.307016    0.054007   -0.078865    0.118432   -0.011484
O     0.466682    2.510642   -0.201657    0.093973    0.277408   -0.024760
H     2.349509   -1.765577    0.219554   -0.195505   -0.948593    0.108254
H     0.074386   -2.095160    0.989797   -0.393698    0.340641   -0.108369
H    -1.751365    0.987015   -0.124851   -0.620540   -1.045562    0.134738
H     2.595648    0.917231   -0.008599    0.031707    0.078255    0.001232
H     0.124777   -2.236287   -0.608675   -0.381918    0.345728    0.037779
13
* Frequency(18)  865.9959
C     1.628901    0.394914    0.009751    0.133887   -0.150743    0.012753
C     1.560893   -0.932017    0.121984    0.379726   -0.223406    0.025012
N     0.221036   -1.560852    0.140681   -0.235215    0.417220   -0.041057
C    -1.026243   -0.772249    0.037217    0.255850   -0.356456    0.034244
N    -0.818351    0.557913   -0.070643   -0.124199   -0.335131    0.017803
C     0.409312    1.273781   -0.096838   -0.239530    0.210791   -0.011185
O    -2.089513   -1.319922    0.055259   -0.078865    0.118432   -0.011484
O     0.456441    2.480412   -0.198959    0.093973    0.277408   -0.024760
H     2.370814   -1.662205    0.207757   -0.195505   -0.948593    0.108254
H     0.117289   -2.132281    1.001606   -0.393698    0.340641   -0.108369
H    -1.683742    1.100953   -0.139533   -0.620540   -1.045562    0.134738
H     2.592192    0.908703   -0.008734    0.031707    0.078255    0.001232
H     0.166396   -2.273962   -0.612792   -0.381918    0.345728    0.037779
13
* Frequency(18)  865.9959
C     1.613475    0.412282    0.008281    0.133887   -0.150743    0.012753
C     1.517143   -0.906277    0.119102    0.379726   -0.223406    0.025012
N     0.248136   -1.608922    0.145411   -0.235215    0.417220   -0.041057
C    -1.055721   -0.731180    0.033272    0.255850   -0.356456    0.034244
N    -0.804041    0.596525   -0.072694   -0.124199   -0.335131    0.017803
C     0.436910    1.249495   -0.095549   -0.239530    0.210791   -0.011185
O    -2.080426   -1.333567    0.056582   -0.078865    0.118432   -0.011484
O     0.445614    2.448450   -0.196106    0.093973    0.277408   -0.024760
H     2.393340   -1.552912    0.195284   -0.195505   -0.948593    0.108254
H     0.162649   -2.171528    1.014092   -0.393698    0.340641   -0.108369
H    -1.612246    1.221419   -0.155057   -0.620540   -1.045562    0.134738
H     2.588539    0.899687   -0.008876    0.031707    0.078255    0.001232
H     0.210399   -2.313795   -0.617145   -0.381918    0.345728    0.037779
13
* Frequency(18)  865.9959
C     1.598885    0.428709    0.006892    0.133887   -0.150743    0.012753
C     1.475763   -0.881932    0.116376    0.379726   -0.223406    0.025012
N     0.273768   -1.654388    0.149885   -0.235215    0.417220   -0.041057
C    -1.083602   -0.692336    0.029540    0.255850   -0.356456    0.034244
N    -0.790507    0.633046   -0.074634   -0.124199   -0.335131    0.017803
C     0.463012    1.226524   -0.094330   -0.239530    0.210791   -0.011185
O    -2.071832   -1.346473    0.057833   -0.078865    0.118432   -0.011484
O     0.435373    2.418220   -0.193408    0.093973    0.277408   -0.024760
H     2.414644   -1.449541    0.183488   -0.195505   -0.948593    0.108254
H     0.205552   -2.208649    1.025901   -0.393698    0.340641   -0.108369
H    -1.544624    1.335358   -0.169740   -0.620540   -1.045562    0.134738
H     2.585084    0.891159   -0.009010    0.031707    0.078255    0.001232
H     0.252018   -2.351471   -0.621262   -0.381918    0.345728    0.037779
13
* Frequency(18)  865.9959
C     1.586712    0.442415    0.005732    0.133887   -0.150743    0.012753
C     1.441237   -0.861619    0.114102    0.379726   -0.223406    0.025012
N     0.295155   -1.692322    0.153618   -0.235215    0.417220   -0.041057
C    -1.106864   -0.659926    0.026427    0.255850   -0.356456    0.034244
N    -0.779215    0.663516   -0.076253   -0.124199   -0.335131    0.017803
C     0.484791    1.207359   -0.093313   -0.239530    0.210791   -0.011185
O    -2.064662   -1.357241    0.058877   -0.078865    0.118432   -0.011484
O     0.426829    2.392997   -0.191157    0.093973    0.277408   -0.024760
H     2.432420   -1.363293    0.173645   -0.195505   -0.948593    0.108254
H     0.241347   -2.239621    1.035754   -0.393698    0.340641   -0.108369
H    -1.488203    1.430422   -0.181991   -0.620540   -1.045562    0.134738
H     2.582201    0.884044   -0.009122    0.031707    0.078255    0.001232
H     0.286743   -2.382905   -0.624697   -0.381918    0.345728    0.037779
13
* Frequency(18)  865.9959
C     1.578275    0.451915    0.004928    0.133887   -0.150743    0.012753
C     1.417308   -0.847541    0.112526    0.379726   -0.223406    0.025012
N     0.309977   -1.718614    0.156206   -0.235215    0.417220   -0.041057
C    -1.122987   -0.637463    0.024269    0.255850   -0.356456    0.034244
N    -0.771388    0.684635   -0.077375   -0.124199   -0.335131    0.017803
C     0.499885    1.194076   -0.092609   -0.239530    0.210791   -0.011185
O    -2.059692   -1.364705    0.059601   -0.078865    0.118432   -0.011484
O     0.420907    2.375516   -0.189597    0.093973    0.277408   -0.024760
H     2.444740   -1.303515    0.166823   -0.195505   -0.948593    0.108254
H     0.266157   -2.261087    1.042583   -0.393698    0.340641   -0.108369
H    -1.449098    1.496310   -0.190482   -0.620540   -1.045562    0.134738
H     2.580203    0.879112   -0.009200    0.031707    0.078255    0.001232
H     0.310810   -2.404692   -0.627078   -0.381918    0.345728    0.037779
13
* Frequency(18)  865.9959
C     1.574488    0.456178    0.004568    0.133887   -0.150743    0.012753
C     1.406568   -0.841222    0.111818    0.379726   -0.223406    0.025012
N     0.316630   -1.730415    0.157367   -0.235215    0.417220   -0.041057
C    -1.130224   -0.627381    0.023300    0.255850   -0.356456    0.034244
N    -0.767875    0.694114   -0.077879   -0.124199   -0.335131    0.017803
C     0.506660    1.188114   -0.092292   -0.239530    0.210791   -0.011185
O    -2.057461   -1.368054    0.059926   -0.078865    0.118432   -0.011484
O     0.418249    2.367670   -0.188896    0.093973    0.277408   -0.024760
H     2.450270   -1.276685    0.163761   -0.195505   -0.948593    0.108254
H     0.277293   -2.270722    1.045648   -0.393698    0.340641   -0.108369
H    -1.431547    1.525883   -0.194293   -0.620540   -1.045562    0.134738
H     2.579306    0.876899   -0.009234    0.031707    0.078255    0.001232
H     0.321612   -2.414470   -0.628146   -0.381918    0.345728    0.037779
13
* Frequency(18)  865.9959
C     1.575762    0.454744    0.004689    0.133887   -0.150743    0.012753
C     1.410181   -0.843348    0.112056    0.379726   -0.223406    0.025012
N     0.314392   -1.726445    0.156976   -0.235215    0.417220   -0.041057
C    -1.127789   -0.630773    0.023626    0.255850   -0.356456    0.034244
N    -0.769057    0.690926   -0.077709   -0.124199   -0.335131    0.017803
C     0.504381    1.190119   -0.092399   -0.239530    0.210791   -0.011185
O    -2.058212   -1.366928    0.059817   -0.078865    0.118432   -0.011484
O     0.419143    2.370309   -0.189132    0.093973    0.277408   -0.024760
H     2.448410   -1.285711    0.164791   -0.195505   -0.948593    0.108254
H     0.273547   -2.267481    1.044617   -0.393698    0.340641   -0.108369
H    -1.437451    1.515935   -0.193011   -0.620540   -1.045562    0.134738
H     2.579608    0.877644   -0.009223    0.031707    0.078255    0.001232
H     0.317979   -2.411181   -0.627787   -0.381918    0.345728    0.037779
13
* Frequency(18)  865.9959
C     1.581958    0.447767    0.005279    0.133887   -0.150743    0.012753
C     1.427755   -0.853687    0.113214    0.379726   -0.223406    0.025012
N     0.303506   -1.707136    0.155076   -0.235215    0.417220   -0.041057
C    -1.115948   -0.647270    0.025211    0.255850   -0.356456    0.034244
N    -0.774805    0.675415   -0.076885   -0.124199   -0.335131    0.017803
C     0.493295    1.199875   -0.092916   -0.239530    0.210791   -0.011185
O    -2.061862   -1.361446    0.059285   -0.078865    0.118432   -0.011484
O     0.423492    2.383148   -0.190278    0.093973    0.277408   -0.024760
H     2.439362   -1.329613    0.169801   -0.195505   -0.948593    0.108254
H     0.255326   -2.251715    1.039602   -0.393698    0.340641   -0.108369
H    -1.466171    1.467545   -0.186775   -0.620540   -1.045562    0.134738
H     2.581075    0.881265   -0.009166    0.031707    0.078255    0.001232
H     0.300303   -2.395180   -0.626038   -0.381918    0.345728    0.037779
13
* Frequency(18)  865.9959
C     1.592406    0.436004    0.006274    0.133887   -0.150743    0.012753
C     1.457387   -0.871121    0.115166    0.379726   -0.223406    0.025012
N     0.285151   -1.674578    0.151872   -0.235215    0.417220   -0.041057
C    -1.095983   -0.675086    0.027883    0.255850   -0.356456    0.034244
N    -0.784497    0.649264   -0.075496   -0.124199   -0.335131    0.017803
C     0.474604    1.216324   -0.093789   -0.239530    0.210791   -0.011185
O    -2.068016   -1.352205    0.058389   -0.078865    0.118432   -0.011484
O     0.430826    2.404795   -0.192210    0.093973    0.277408   -0.024760
H     2.424106   -1.403635    0.178249   -0.195505   -0.948593    0.108254
H     0.224604   -2.225134    1.031145   -0.393698    0.340641   -0.108369
H    -1.514594    1.385955   -0.176261   -0.620540   -1.045562    0.134738
H     2.583550    0.887372   -0.009069    0.031707    0.078255    0.001232
H     0.270500   -2.368201   -0.623090   -0.381918    0.345728    0.037779
13
* Frequency(18)  865.9959
C     1.605973    0.420729    0.007567    0.133887   -0.150743    0.012753
C     1.495864   -0.893758    0.117700    0.379726   -0.223406    0.025012
N     0.261317   -1.632302    0.147712   -0.235215    0.417220   -0.041057
C    -1.070058   -0.711205    0.031353    0.255850   -0.356456    0.034244
N    -0.797082    0.615305   -0.073692   -0.124199   -0.335131    0.017803
C     0.450332    1.237683   -0.094922   -0.239530    0.210791   -0.011185
O    -2.076007   -1.340204    0.057225   -0.078865    0.118432   -0.011484
O     0.440348    2.432905   -0.194719    0.093973    0.277408   -0.024760
H     2.404295   -1.499756    0.189218   -0.195505   -0.948593    0.108254
H     0.184711   -2.190617    1.020164   -0.393698    0.340641   -0.108369
H    -1.577473    1.280009   -0.162608   -0.620540   -1.045562    0.134738
H     2.586762    0.895301   -0.008945    0.031707    0.078255    0.001232
H     0.231801   -2.333169   -0.619262   -0.381918    0.345728    0.037779
13
* Frequency(18)  865.9959
C     1.621188    0.403598    0.009016    0.133887   -0.150743    0.012753
C     1.539018   -0.919147    0.120543    0.379726   -0.223406    0.025012
N     0.234586   -1.584887    0.143046   -0.235215    0.417220   -0.041057
C    -1.040982   -0.751715    0.035244    0.255850   -0.356456    0.034244
N    -0.811196    0.577219   -0.071669   -0.124199   -0.335131    0.017803
C     0.423111    1.261638   -0.096194   -0.239530    0.210791   -0.011185
O    -2.084970   -1.326745    0.055920   -0.078865    0.118432   -0.011484
O     0.451027    2.464431   -0.197533    0.093973    0.277408   -0.024760
H     2.382077   -1.607559    0.201521   -0.195505   -0.948593    0.108254
H     0.139969   -2.151905    1.007849   -0.393698    0.340641   -0.108369
H    -1.647994    1.161186   -0.147295   -0.620540   -1.045562    0.134738
H     2.590366    0.904195   -0.008805    0.031707    0.078255    0.001232
H     0.188398   -2.293879   -0.614969   -0.381918    0.345728    0.037779
