13
* (null), Energy   -1000.0000000
C     1.621188    0.403598    0.009016   -0.003201    0.023747    0.233900
C     1.539018   -0.919147    0.120543    0.010465   -0.016677   -0.212931
N     0.234586   -1.584887    0.143046   -0.007110   -0.002311    0.033964
C    -1.040982   -0.751715    0.035244    0.001198   -0.002965   -0.043654
N    -0.811196    0.577219   -0.071669   -0.000548    0.003575    0.007687
C     0.423111    1.261638   -0.096194    0.000621   -0.002962   -0.026011
O    -2.084970   -1.326745    0.055920    0.000540   -0.000153    0.008671
O     0.451027    2.464431   -0.197533   -0.000492   -0.000244    0.008609
H     2.382077   -1.607559    0.201521   -0.032577    0.108234    1.302653
H     0.139969   -2.151905    1.007849    0.088913   -0.145224   -0.049588
H    -1.647994    1.161186   -0.147295    0.001651    0.005556   -0.002608
H     2.590366    0.904195   -0.008805    0.033950   -0.107911   -1.454014
H     0.188398   -2.293879   -0.614969   -0.094493    0.114468   -0.069237
13
* Frequency(22)  996.0680
C     1.620824    0.406297    0.035598   -0.003201    0.023747    0.233900
C     1.540207   -0.921043    0.096344    0.010465   -0.016677   -0.212931
N     0.233778   -1.585149    0.146906   -0.007110   -0.002311    0.033964
C    -1.040846   -0.752052    0.030283    0.001198   -0.002965   -0.043654
N    -0.811259    0.577625   -0.070795   -0.000548    0.003575    0.007687
C     0.423182    1.261302   -0.099150    0.000621   -0.002962   -0.026011
O    -2.084908   -1.326762    0.056906    0.000540   -0.000153    0.008671
O     0.450971    2.464403   -0.196555   -0.000492   -0.000244    0.008609
H     2.378375   -1.595258    0.349560   -0.032577    0.108234    1.302653
H     0.150073   -2.168408    1.002213    0.088913   -0.145224   -0.049588
H    -1.647807    1.161818   -0.147592    0.001651    0.005556   -0.002608
H     2.594224    0.891931   -0.174046    0.033950   -0.107911   -1.454014
H     0.177659   -2.280870   -0.622837   -0.094493    0.114468   -0.069237
13
* Frequency(22)  996.0680
C     1.620500    0.408703    0.059298   -0.003201    0.023747    0.233900
C     1.541268   -0.922732    0.074768    0.010465   -0.016677   -0.212931
N     0.233057   -1.585384    0.150348   -0.007110   -0.002311    0.033964
C    -1.040724   -0.752352    0.025860    0.001198   -0.002965   -0.043654
N    -0.811314    0.577987   -0.070016   -0.000548    0.003575    0.007687
C     0.423245    1.261001   -0.101785    0.000621   -0.002962   -0.026011
O    -2.084854   -1.326778    0.057784    0.000540   -0.000153    0.008671
O     0.450922    2.464378   -0.195682   -0.000492   -0.000244    0.008609
H     2.375074   -1.584291    0.481558   -0.032577    0.108234    1.302653
H     0.159083   -2.183124    0.997189    0.088913   -0.145224   -0.049588
H    -1.647639    1.162381   -0.147856    0.001651    0.005556   -0.002608
H     2.597664    0.880997   -0.321381    0.033950   -0.107911   -1.454014
H     0.168084   -2.269271   -0.629853   -0.094493    0.114468   -0.069237
13
* Frequency(22)  996.0680
C     1.620250    0.410556    0.077551   -0.003201    0.023747    0.233900
C     1.542084   -0.924034    0.058152    0.010465   -0.016677   -0.212931
N     0.232503   -1.585564    0.152998   -0.007110   -0.002311    0.033964
C    -1.040631   -0.752583    0.022454    0.001198   -0.002965   -0.043654
N    -0.811357    0.578266   -0.069416   -0.000548    0.003575    0.007687
C     0.423293    1.260770   -0.103815    0.000621   -0.002962   -0.026011
O    -2.084812   -1.326790    0.058461    0.000540   -0.000153    0.008671
O     0.450883    2.464359   -0.195010   -0.000492   -0.000244    0.008609
H     2.372532   -1.575845    0.583209   -0.032577    0.108234    1.302653
H     0.166021   -2.194456    0.993319    0.088913   -0.145224   -0.049588
H    -1.647510    1.162814   -0.148060    0.001651    0.005556   -0.002608
H     2.600313    0.872576   -0.434843    0.033950   -0.107911   -1.454014
H     0.160710   -2.260338   -0.635256   -0.094493    0.114468   -0.069237
13
* Frequency(22)  996.0680
C     1.620102    0.411655    0.088376   -0.003201    0.023747    0.233900
C     1.542568   -0.924806    0.048297    0.010465   -0.016677   -0.212931
N     0.232173   -1.585671    0.154570   -0.007110   -0.002311    0.033964
C    -1.040576   -0.752721    0.020433    0.001198   -0.002965   -0.043654
N    -0.811382    0.578432   -0.069061   -0.000548    0.003575    0.007687
C     0.423322    1.260633   -0.105019    0.000621   -0.002962   -0.026011
O    -2.084787   -1.326797    0.058862    0.000540   -0.000153    0.008671
O     0.450860    2.464348   -0.194612   -0.000492   -0.000244    0.008609
H     2.371024   -1.570836    0.643498   -0.032577    0.108234    1.302653
H     0.170136   -2.201177    0.991024    0.088913   -0.145224   -0.049588
H    -1.647434    1.163071   -0.148180    0.001651    0.005556   -0.002608
H     2.601885    0.867582   -0.502137    0.033950   -0.107911   -1.454014
H     0.156337   -2.255041   -0.638460   -0.094493    0.114468   -0.069237
13
* Frequency(22)  996.0680
C     1.620072    0.411881    0.090601   -0.003201    0.023747    0.233900
C     1.542668   -0.924964    0.046271    0.010465   -0.016677   -0.212931
N     0.232106   -1.585693    0.154893   -0.007110   -0.002311    0.033964
C    -1.040564   -0.752749    0.020018    0.001198   -0.002965   -0.043654
N    -0.811387    0.578466   -0.068988   -0.000548    0.003575    0.007687
C     0.423328    1.260605   -0.105266    0.000621   -0.002962   -0.026011
O    -2.084781   -1.326798    0.058945    0.000540   -0.000153    0.008671
O     0.450856    2.464345   -0.194530   -0.000492   -0.000244    0.008609
H     2.370714   -1.569806    0.655892   -0.032577    0.108234    1.302653
H     0.170982   -2.202559    0.990552    0.088913   -0.145224   -0.049588
H    -1.647418    1.163124   -0.148205    0.001651    0.005556   -0.002608
H     2.602208    0.866555   -0.515971    0.033950   -0.107911   -1.454014
H     0.155438   -2.253952   -0.639119   -0.094493    0.114468   -0.069237
13
* Frequency(22)  996.0680
C     1.620162    0.411210    0.083986   -0.003201    0.023747    0.233900
C     1.542372   -0.924493    0.052294    0.010465   -0.016677   -0.212931
N     0.232307   -1.585627    0.153932   -0.007110   -0.002311    0.033964
C    -1.040598   -0.752665    0.021253    0.001198   -0.002965   -0.043654
N    -0.811372    0.578365   -0.069205   -0.000548    0.003575    0.007687
C     0.423310    1.260689   -0.104531    0.000621   -0.002962   -0.026011
O    -2.084797   -1.326794    0.058700    0.000540   -0.000153    0.008671
O     0.450870    2.464352   -0.194774   -0.000492   -0.000244    0.008609
H     2.371635   -1.572867    0.619048   -0.032577    0.108234    1.302653
H     0.168467   -2.198452    0.991955    0.088913   -0.145224   -0.049588
H    -1.647465    1.162967   -0.148131    0.001651    0.005556   -0.002608
H     2.601248    0.869607   -0.474846    0.033950   -0.107911   -1.454014
H     0.158111   -2.257189   -0.637161   -0.094493    0.114468   -0.069237
13
* Frequency(22)  996.0680
C     1.620364    0.409713    0.069246   -0.003201    0.023747    0.233900
C     1.541713   -0.923442    0.065712    0.010465   -0.016677   -0.212931
N     0.232755   -1.585482    0.151792   -0.007110   -0.002311    0.033964
C    -1.040674   -0.752478    0.024003    0.001198   -0.002965   -0.043654
N    -0.811337    0.578140   -0.069689   -0.000548    0.003575    0.007687
C     0.423271    1.260875   -0.102891    0.000621   -0.002962   -0.026011
O    -2.084831   -1.326784    0.058153    0.000540   -0.000153    0.008671
O     0.450901    2.464368   -0.195316   -0.000492   -0.000244    0.008609
H     2.373688   -1.579688    0.536958   -0.032577    0.108234    1.302653
H     0.162864   -2.189300    0.995080    0.088913   -0.145224   -0.049588
H    -1.647569    1.162617   -0.147967    0.001651    0.005556   -0.002608
H     2.599108    0.876407   -0.383218    0.033950   -0.107911   -1.454014
H     0.164065   -2.264403   -0.632798   -0.094493    0.114468   -0.069237
13
* Frequency(22)  996.0680
C     1.620655    0.407554    0.047979   -0.003201    0.023747    0.233900
C     1.540761   -0.921925    0.085072    0.010465   -0.016677   -0.212931
N     0.233401   -1.585272    0.148704   -0.007110   -0.002311    0.033964
C    -1.040782   -0.752209    0.027973    0.001198   -0.002965   -0.043654
N    -0.811288    0.577814   -0.070388   -0.000548    0.003575    0.007687
C     0.423215    1.261145   -0.100526    0.000621   -0.002962   -0.026011
O    -2.084880   -1.326770    0.057365    0.000540   -0.000153    0.008671
O     0.450945    2.464390   -0.196099   -0.000492   -0.000244    0.008609
H     2.376650   -1.589529    0.418519   -0.032577    0.108234    1.302653
H     0.154780   -2.176096    0.999588    0.088913   -0.145224   -0.049588
H    -1.647719    1.162112   -0.147730    0.001651    0.005556   -0.002608
H     2.596021    0.886219   -0.251017    0.033950   -0.107911   -1.454014
H     0.172657   -2.274810   -0.626502   -0.094493    0.114468   -0.069237
13
* Frequency(22)  996.0680
C     1.621004    0.404966    0.022491   -0.003201    0.023747    0.233900
C     1.539621   -0.920108    0.108276    0.010465   -0.016677   -0.212931
N     0.234176   -1.585020    0.145003   -0.007110   -0.002311    0.033964
C    -1.040913   -0.751885    0.032730    0.001198   -0.002965   -0.043654
N    -0.811228    0.577425   -0.071226   -0.000548    0.003575    0.007687
C     0.423147    1.261468   -0.097692    0.000621   -0.002962   -0.026011
O    -2.084939   -1.326754    0.056420    0.000540   -0.000153    0.008671
O     0.450999    2.464417   -0.197037   -0.000492   -0.000244    0.008609
H     2.380200   -1.601324    0.276564   -0.032577    0.108234    1.302653
H     0.145091   -2.160271    1.004992    0.088913   -0.145224   -0.049588
H    -1.647899    1.161506   -0.147446    0.001651    0.005556   -0.002608
H     2.592322    0.897978   -0.092568    0.033950   -0.107911   -1.454014
H     0.182954   -2.287284   -0.618957   -0.094493    0.114468   -0.069237
13
* Frequency(22)  996.0680
C     1.621373    0.402230   -0.004458   -0.003201    0.023747    0.233900
C     1.538415   -0.918186    0.132809    0.010465   -0.016677   -0.212931
N     0.234996   -1.584754    0.141089   -0.007110   -0.002311    0.033964
C    -1.041051   -0.751544    0.037759    0.001198   -0.002965   -0.043654
N    -0.811165    0.577013   -0.072112   -0.000548    0.003575    0.007687
C     0.423075    1.261809   -0.094695    0.000621   -0.002962   -0.026011
O    -2.085001   -1.326736    0.055421    0.000540   -0.000153    0.008671
O     0.451056    2.464445   -0.198029   -0.000492   -0.000244    0.008609
H     2.383954   -1.613794    0.126477   -0.032577    0.108234    1.302653
H     0.134847   -2.143539    1.010705    0.088913   -0.145224   -0.049588
H    -1.648089    1.160866   -0.147145    0.001651    0.005556   -0.002608
H     2.588410    0.910411    0.074958    0.033950   -0.107911   -1.454014
H     0.193841   -2.300473   -0.610980   -0.094493    0.114468   -0.069237
13
* Frequency(22)  996.0680
C     1.621721    0.399642   -0.029947   -0.003201    0.023747    0.233900
C     1.537275   -0.916369    0.156013    0.010465   -0.016677   -0.212931
N     0.235770   -1.584502    0.137388   -0.007110   -0.002311    0.033964
C    -1.041181   -0.751221    0.042516    0.001198   -0.002965   -0.043654
N    -0.811105    0.576624   -0.072949   -0.000548    0.003575    0.007687
C     0.423008    1.262132   -0.091861    0.000621   -0.002962   -0.026011
O    -2.085060   -1.326719    0.054476    0.000540   -0.000153    0.008671
O     0.451109    2.464471   -0.198967   -0.000492   -0.000244    0.008609
H     2.387504   -1.625589   -0.015477   -0.032577    0.108234    1.302653
H     0.125158   -2.127713    1.016109    0.088913   -0.145224   -0.049588
H    -1.648269    1.160261   -0.146861    0.001651    0.005556   -0.002608
H     2.584710    0.922171    0.233407    0.033950   -0.107911   -1.454014
H     0.204138   -2.312947   -0.603435   -0.094493    0.114468   -0.069237
13
* Frequency(22)  996.0680
C     1.622012    0.397483   -0.051214   -0.003201    0.023747    0.233900
C     1.536323   -0.914853    0.175373    0.010465   -0.016677   -0.212931
N     0.236417   -1.584292    0.134300   -0.007110   -0.002311    0.033964
C    -1.041290   -0.750951    0.046485    0.001198   -0.002965   -0.043654
N    -0.811055    0.576299   -0.073648   -0.000548    0.003575    0.007687
C     0.422951    1.262401   -0.089496    0.000621   -0.002962   -0.026011
O    -2.085109   -1.326706    0.053687    0.000540   -0.000153    0.008671
O     0.451154    2.464494   -0.199750   -0.000492   -0.000244    0.008609
H     2.390466   -1.635429   -0.133917   -0.032577    0.108234    1.302653
H     0.117074   -2.114509    1.020618    0.088913   -0.145224   -0.049588
H    -1.648419    1.159755   -0.146624    0.001651    0.005556   -0.002608
H     2.581624    0.931982    0.365609    0.033950   -0.107911   -1.454014
H     0.212730   -2.323355   -0.597140   -0.094493    0.114468   -0.069237
13
* Frequency(22)  996.0680
C     1.622214    0.395987   -0.065954   -0.003201    0.023747    0.233900
C     1.535664   -0.913802    0.188792    0.010465   -0.016677   -0.212931
N     0.236865   -1.584146    0.132160   -0.007110   -0.002311    0.033964
C    -1.041366   -0.750764    0.049236    0.001198   -0.002965   -0.043654
N    -0.811021    0.576073   -0.074133   -0.000548    0.003575    0.007687
C     0.422912    1.262588   -0.087857    0.000621   -0.002962   -0.026011
O    -2.085143   -1.326696    0.053141    0.000540   -0.000153    0.008671
O     0.451185    2.464509   -0.200292   -0.000492   -0.000244    0.008609
H     2.392519   -1.642250   -0.216007   -0.032577    0.108234    1.302653
H     0.111471   -2.105357    1.023743    0.088913   -0.145224   -0.049588
H    -1.648523    1.159405   -0.146460    0.001651    0.005556   -0.002608
H     2.579484    0.938782    0.457237    0.033950   -0.107911   -1.454014
H     0.218685   -2.330568   -0.592777   -0.094493    0.114468   -0.069237
13
* Frequency(22)  996.0680
C     1.622305    0.395315   -0.072569   -0.003201    0.023747    0.233900
C     1.535368   -0.913330    0.194814    0.010465   -0.016677   -0.212931
N     0.237066   -1.584081    0.131199   -0.007110   -0.002311    0.033964
C    -1.041400   -0.750680    0.050471    0.001198   -0.002965   -0.043654
N    -0.811005    0.575972   -0.074350   -0.000548    0.003575    0.007687
C     0.422894    1.262671   -0.087121    0.000621   -0.002962   -0.026011
O    -2.085158   -1.326692    0.052896    0.000540   -0.000153    0.008671
O     0.451199    2.464516   -0.200536   -0.000492   -0.000244    0.008609
H     2.393440   -1.645311   -0.252851   -0.032577    0.108234    1.302653
H     0.108956   -2.101250    1.025145    0.088913   -0.145224   -0.049588
H    -1.648570    1.159248   -0.146386    0.001651    0.005556   -0.002608
H     2.578524    0.941835    0.498362    0.033950   -0.107911   -1.454014
H     0.221357   -2.333806   -0.590818   -0.094493    0.114468   -0.069237
13
* Frequency(22)  996.0680
C     1.622274    0.395541   -0.070344   -0.003201    0.023747    0.233900
C     1.535467   -0.913489    0.192788    0.010465   -0.016677   -0.212931
N     0.236998   -1.584103    0.131522   -0.007110   -0.002311    0.033964
C    -1.041388   -0.750709    0.050056    0.001198   -0.002965   -0.043654
N    -0.811010    0.576006   -0.074277   -0.000548    0.003575    0.007687
C     0.422900    1.262643   -0.087368    0.000621   -0.002962   -0.026011
O    -2.085153   -1.326693    0.052978    0.000540   -0.000153    0.008671
O     0.451194    2.464514   -0.200454   -0.000492   -0.000244    0.008609
H     2.393130   -1.644282   -0.240457   -0.032577    0.108234    1.302653
H     0.109802   -2.102632    1.024674    0.088913   -0.145224   -0.049588
H    -1.648554    1.159301   -0.146411    0.001651    0.005556   -0.002608
H     2.578847    0.940808    0.484528    0.033950   -0.107911   -1.454014
H     0.220458   -2.332717   -0.591477   -0.094493    0.114468   -0.069237
13
* Frequency(22)  996.0680
C     1.622126    0.396640   -0.059519   -0.003201    0.023747    0.233900
C     1.535952   -0.914261    0.182933    0.010465   -0.016677   -0.212931
N     0.236669   -1.584210    0.133094   -0.007110   -0.002311    0.033964
C    -1.041333   -0.750846    0.048035    0.001198   -0.002965   -0.043654
N    -0.811036    0.576172   -0.073921   -0.000548    0.003575    0.007687
C     0.422929    1.262506   -0.088572    0.000621   -0.002962   -0.026011
O    -2.085128   -1.326700    0.053380    0.000540   -0.000153    0.008671
O     0.451172    2.464502   -0.200055   -0.000492   -0.000244    0.008609
H     2.391622   -1.639272   -0.180167   -0.032577    0.108234    1.302653
H     0.113917   -2.109353    1.022379    0.088913   -0.145224   -0.049588
H    -1.648478    1.159558   -0.146531    0.001651    0.005556   -0.002608
H     2.580418    0.935814    0.417233    0.033950   -0.107911   -1.454014
H     0.216085   -2.327419   -0.594682   -0.094493    0.114468   -0.069237
13
* Frequency(22)  996.0680
C     1.621876    0.398493   -0.041266   -0.003201    0.023747    0.233900
C     1.536768   -0.915562    0.166318    0.010465   -0.016677   -0.212931
N     0.236114   -1.584390    0.135745   -0.007110   -0.002311    0.033964
C    -1.041239   -0.751077    0.044629    0.001198   -0.002965   -0.043654
N    -0.811079    0.576451   -0.073321   -0.000548    0.003575    0.007687
C     0.422978    1.262275   -0.090602    0.000621   -0.002962   -0.026011
O    -2.085086   -1.326712    0.054056    0.000540   -0.000153    0.008671
O     0.451133    2.464483   -0.199383   -0.000492   -0.000244    0.008609
H     2.389080   -1.630826   -0.078516   -0.032577    0.108234    1.302653
H     0.120855   -2.120685    1.018509    0.088913   -0.145224   -0.049588
H    -1.648349    1.159992   -0.146735    0.001651    0.005556   -0.002608
H     2.583067    0.927393    0.303771    0.033950   -0.107911   -1.454014
H     0.208711   -2.318486   -0.600085   -0.094493    0.114468   -0.069237
13
* Frequency(22)  996.0680
C     1.621552    0.400899   -0.017565   -0.003201    0.023747    0.233900
C     1.537829   -0.917252    0.144741    0.010465   -0.016677   -0.212931
N     0.235394   -1.584624    0.139186   -0.007110   -0.002311    0.033964
C    -1.041118   -0.751378    0.040205    0.001198   -0.002965   -0.043654
N    -0.811134    0.576813   -0.072542   -0.000548    0.003575    0.007687
C     0.423041    1.261975   -0.093238    0.000621   -0.002962   -0.026011
O    -2.085031   -1.326727    0.054935    0.000540   -0.000153    0.008671
O     0.451083    2.464458   -0.198511   -0.000492   -0.000244    0.008609
H     2.385779   -1.619859    0.053481   -0.032577    0.108234    1.302653
H     0.129864   -2.135401    1.013484    0.088913   -0.145224   -0.049588
H    -1.648182    1.160555   -0.146999    0.001651    0.005556   -0.002608
H     2.586508    0.916458    0.156437    0.033950   -0.107911   -1.454014
H     0.199136   -2.306887   -0.607100   -0.094493    0.114468   -0.069237
13
* Frequency(22)  996.0680
C     1.621188    0.403598    0.009016   -0.003201    0.023747    0.233900
C     1.539018   -0.919147    0.120543    0.010465   -0.016677   -0.212931
N     0.234586   -1.584887    0.143046   -0.007110   -0.002311    0.033964
C    -1.040982   -0.751715    0.035244    0.001198   -0.002965   -0.043654
N    -0.811196    0.577219   -0.071669   -0.000548    0.003575    0.007687
C     0.423111    1.261638   -0.096194    0.000621   -0.002962   -0.026011
O    -2.084970   -1.326745    0.055920    0.000540   -0.000153    0.008671
O     0.451027    2.464431   -0.197533   -0.000492   -0.000244    0.008609
H     2.382077   -1.607559    0.201521   -0.032577    0.108234    1.302653
H     0.139969   -2.151905    1.007849    0.088913   -0.145224   -0.049588
H    -1.647994    1.161186   -0.147295    0.001651    0.005556   -0.002608
H     2.590366    0.904195   -0.008805    0.033950   -0.107911   -1.454014
H     0.188398   -2.293879   -0.614969   -0.094493    0.114468   -0.069237
