13
* (null), Energy   -1000.0000000
C     1.365855    0.533997   -0.017795    0.582540    0.187239    0.002014
C     1.281863   -0.788655    0.093257    0.483449    0.252558   -0.005330
N    -0.021011   -1.450395    0.118437    0.118384    0.634311   -0.058994
C    -1.289878   -0.622329    0.007801   -0.545171    0.106464   -0.039795
N    -1.064188    0.706802   -0.097341   -0.180590   -0.095311    0.010910
C     0.168081    1.391376   -0.119566    0.144652   -0.507035    0.042669
O    -2.334795   -1.198357    0.024143   -0.464694   -0.086578    0.000268
O     0.193513    2.595440   -0.217241   -0.058486   -0.555152    0.043359
H     2.123010   -1.478478    0.173803    0.180709   -0.121517    0.046015
H    -0.114939   -2.012404    0.984263    0.234868    0.628298   -0.068162
H    -1.901448    1.289086   -0.172072    0.229516    0.492892    0.006690
H     2.334895    1.034094   -0.036100    0.336342    0.663220   -0.022025
H    -0.071619   -2.162707   -0.633029    0.257378    0.565394    0.018455
13
* Frequency(10)  475.6288
C     1.432058    0.555276   -0.017567    0.582540    0.187239    0.002014
C     1.336804   -0.759954    0.092651    0.483449    0.252558   -0.005330
N    -0.007557   -1.378309    0.111733    0.118384    0.634311   -0.058994
C    -1.351833   -0.610230    0.003279   -0.545171    0.106464   -0.039795
N    -1.084711    0.695970   -0.096101   -0.180590   -0.095311    0.010910
C     0.184520    1.333754   -0.114717    0.144652   -0.507035    0.042669
O    -2.387605   -1.208196    0.024174   -0.464694   -0.086578    0.000268
O     0.186866    2.532350   -0.212314   -0.058486   -0.555152    0.043359
H     2.143547   -1.492288    0.179033    0.180709   -0.121517    0.046015
H    -0.088247   -1.941001    0.976517    0.234868    0.628298   -0.068162
H    -1.875365    1.345101   -0.171312    0.229516    0.492892    0.006690
H     2.373118    1.109466   -0.038603    0.336342    0.663220   -0.022025
H    -0.042369   -2.098452   -0.630931    0.257378    0.565394    0.018455
13
* Frequency(10)  475.6288
C     1.491086    0.574249   -0.017362    0.582540    0.187239    0.002014
C     1.385792   -0.734362    0.092111    0.483449    0.252558   -0.005330
N     0.004439   -1.314034    0.105755    0.118384    0.634311   -0.058994
C    -1.407075   -0.599442   -0.000754   -0.545171    0.106464   -0.039795
N    -1.103010    0.686312   -0.094996   -0.180590   -0.095311    0.010910
C     0.199178    1.282376   -0.110394    0.144652   -0.507035    0.042669
O    -2.434692   -1.216969    0.024201   -0.464694   -0.086578    0.000268
O     0.180940    2.476097   -0.207920   -0.058486   -0.555152    0.043359
H     2.161858   -1.504601    0.183695    0.180709   -0.121517    0.046015
H    -0.064448   -1.877336    0.969610    0.234868    0.628298   -0.068162
H    -1.852108    1.395045   -0.170634    0.229516    0.492892    0.006690
H     2.407200    1.176669   -0.040835    0.336342    0.663220   -0.022025
H    -0.016289   -2.041161   -0.629061    0.257378    0.565394    0.018455
13
* Frequency(10)  475.6288
C     1.536544    0.588860   -0.017205    0.582540    0.187239    0.002014
C     1.423517   -0.714654    0.091695    0.483449    0.252558   -0.005330
N     0.013677   -1.264537    0.101152    0.118384    0.634311   -0.058994
C    -1.449617   -0.591135   -0.003859   -0.545171    0.106464   -0.039795
N    -1.117102    0.678875   -0.094144   -0.180590   -0.095311    0.010910
C     0.210465    1.242811   -0.107064    0.144652   -0.507035    0.042669
O    -2.470954   -1.223725    0.024222   -0.464694   -0.086578    0.000268
O     0.176376    2.432776   -0.204537   -0.058486   -0.555152    0.043359
H     2.175959   -1.514083    0.187286    0.180709   -0.121517    0.046015
H    -0.046120   -1.828308    0.964291    0.234868    0.628298   -0.068162
H    -1.834198    1.433507   -0.170112    0.229516    0.492892    0.006690
H     2.433446    1.228423   -0.042554    0.336342    0.663220   -0.022025
H     0.003795   -1.997041   -0.627621    0.257378    0.565394    0.018455
13
* Frequency(10)  475.6288
C     1.563505    0.597526   -0.017112    0.582540    0.187239    0.002014
C     1.445892   -0.702965    0.091448    0.483449    0.252558   -0.005330
N     0.019156   -1.235180    0.098421    0.118384    0.634311   -0.058994
C    -1.474849   -0.586207   -0.005701   -0.545171    0.106464   -0.039795
N    -1.125460    0.674464   -0.093639   -0.180590   -0.095311    0.010910
C     0.217160    1.219344   -0.105089    0.144652   -0.507035    0.042669
O    -2.492461   -1.227732    0.024234   -0.464694   -0.086578    0.000268
O     0.173669    2.407083   -0.202530   -0.058486   -0.555152    0.043359
H     2.184323   -1.519707    0.189416    0.180709   -0.121517    0.046015
H    -0.035250   -1.799229    0.961137    0.234868    0.628298   -0.068162
H    -1.823576    1.456319   -0.169803    0.229516    0.492892    0.006690
H     2.449012    1.259118   -0.043573    0.336342    0.663220   -0.022025
H     0.015707   -1.970874   -0.626767    0.257378    0.565394    0.018455
13
* Frequency(10)  475.6288
C     1.569047    0.599307   -0.017093    0.582540    0.187239    0.002014
C     1.450492   -0.700562    0.091397    0.483449    0.252558   -0.005330
N     0.020282   -1.229145    0.097860    0.118384    0.634311   -0.058994
C    -1.480036   -0.585194   -0.006079   -0.545171    0.106464   -0.039795
N    -1.127179    0.673557   -0.093536   -0.180590   -0.095311    0.010910
C     0.218536    1.214520   -0.104683    0.144652   -0.507035    0.042669
O    -2.496882   -1.228556    0.024237   -0.464694   -0.086578    0.000268
O     0.173113    2.401801   -0.202117   -0.058486   -0.555152    0.043359
H     2.186042   -1.520864    0.189854    0.180709   -0.121517    0.046015
H    -0.033015   -1.793251    0.960488    0.234868    0.628298   -0.068162
H    -1.821392    1.461009   -0.169739    0.229516    0.492892    0.006690
H     2.452212    1.265428   -0.043783    0.336342    0.663220   -0.022025
H     0.018156   -1.965494   -0.626591    0.257378    0.565394    0.018455
13
* Frequency(10)  475.6288
C     1.552571    0.594011   -0.017150    0.582540    0.187239    0.002014
C     1.436818   -0.707705    0.091548    0.483449    0.252558   -0.005330
N     0.016934   -1.247085    0.099529    0.118384    0.634311   -0.058994
C    -1.464616   -0.588205   -0.004954   -0.545171    0.106464   -0.039795
N    -1.122071    0.676252   -0.093844   -0.180590   -0.095311    0.010910
C     0.214445    1.228861   -0.105890    0.144652   -0.507035    0.042669
O    -2.483739   -1.226107    0.024229   -0.464694   -0.086578    0.000268
O     0.174767    2.417503   -0.203344   -0.058486   -0.555152    0.043359
H     2.180931   -1.517427    0.188552    0.180709   -0.121517    0.046015
H    -0.039658   -1.811022    0.962416    0.234868    0.628298   -0.068162
H    -1.827883    1.447068   -0.169928    0.229516    0.492892    0.006690
H     2.442699    1.246670   -0.043160    0.336342    0.663220   -0.022025
H     0.010876   -1.981486   -0.627113    0.257378    0.565394    0.018455
13
* Frequency(10)  475.6288
C     1.515861    0.582212   -0.017277    0.582540    0.187239    0.002014
C     1.406353   -0.723621    0.091884    0.483449    0.252558   -0.005330
N     0.009474   -1.287058    0.103246    0.118384    0.634311   -0.058994
C    -1.430261   -0.594915   -0.002446   -0.545171    0.106464   -0.039795
N    -1.110691    0.682259   -0.094532   -0.180590   -0.095311    0.010910
C     0.205330    1.260813   -0.108579    0.144652   -0.507035    0.042669
O    -2.454455   -1.220651    0.024212   -0.464694   -0.086578    0.000268
O     0.178452    2.452487   -0.206076   -0.058486   -0.555152    0.043359
H     2.169543   -1.509769    0.185652    0.180709   -0.121517    0.046015
H    -0.054459   -1.850615    0.966711    0.234868    0.628298   -0.068162
H    -1.842347    1.416007   -0.170350    0.229516    0.492892    0.006690
H     2.421504    1.204875   -0.041772    0.336342    0.663220   -0.022025
H    -0.005343   -2.017116   -0.628276    0.257378    0.565394    0.018455
13
* Frequency(10)  475.6288
C     1.462895    0.565188   -0.017460    0.582540    0.187239    0.002014
C     1.362397   -0.746584    0.092369    0.483449    0.252558   -0.005330
N    -0.001290   -1.344731    0.108610    0.118384    0.634311   -0.058994
C    -1.380693   -0.604594    0.001172   -0.545171    0.106464   -0.039795
N    -1.094271    0.690925   -0.095524   -0.180590   -0.095311    0.010910
C     0.192178    1.306913   -0.112458    0.144652   -0.507035    0.042669
O    -2.412204   -1.212779    0.024188   -0.464694   -0.086578    0.000268
O     0.183770    2.502962   -0.210018   -0.058486   -0.555152    0.043359
H     2.153113   -1.498720    0.181469    0.180709   -0.121517    0.046015
H    -0.075814   -1.907741    0.972909    0.234868    0.628298   -0.068162
H    -1.863215    1.371193   -0.170958    0.229516    0.492892    0.006690
H     2.390923    1.144574   -0.039769    0.336342    0.663220   -0.022025
H    -0.028745   -2.068522   -0.629954    0.257378    0.565394    0.018455
13
* Frequency(10)  475.6288
C     1.399414    0.544784   -0.017679    0.582540    0.187239    0.002014
C     1.309713   -0.774106    0.092950    0.483449    0.252558   -0.005330
N    -0.014191   -1.413854    0.115039    0.118384    0.634311   -0.058994
C    -1.321284   -0.616196    0.005509   -0.545171    0.106464   -0.039795
N    -1.074591    0.701311   -0.096713   -0.180590   -0.095311    0.010910
C     0.176414    1.362167   -0.117108    0.144652   -0.507035    0.042669
O    -2.361565   -1.203345    0.024159   -0.464694   -0.086578    0.000268
O     0.190144    2.563459   -0.214743   -0.058486   -0.555152    0.043359
H     2.133420   -1.485478    0.176454    0.180709   -0.121517    0.046015
H    -0.101408   -1.976209    0.980337    0.234868    0.628298   -0.068162
H    -1.888226    1.317481   -0.171687    0.229516    0.492892    0.006690
H     2.354271    1.072301   -0.037369    0.336342    0.663220   -0.022025
H    -0.056792   -2.130135   -0.631965    0.257378    0.565394    0.018455
13
* Frequency(10)  475.6288
C     1.332296    0.523211   -0.017911    0.582540    0.187239    0.002014
C     1.254012   -0.803205    0.093564    0.483449    0.252558   -0.005330
N    -0.027831   -1.486937    0.121836    0.118384    0.634311   -0.058994
C    -1.258471   -0.628463    0.010094   -0.545171    0.106464   -0.039795
N    -1.053784    0.712292   -0.097970   -0.180590   -0.095311    0.010910
C     0.159748    1.420585   -0.122024    0.144652   -0.507035    0.042669
O    -2.308025   -1.193370    0.024128   -0.464694   -0.086578    0.000268
O     0.196882    2.627422   -0.219739   -0.058486   -0.555152    0.043359
H     2.112600   -1.471477    0.171153    0.180709   -0.121517    0.046015
H    -0.128469   -2.048599    0.988190    0.234868    0.628298   -0.068162
H    -1.914670    1.260691   -0.172458    0.229516    0.492892    0.006690
H     2.315519    0.995887   -0.034831    0.336342    0.663220   -0.022025
H    -0.086446   -2.195278   -0.634092    0.257378    0.565394    0.018455
13
* Frequency(10)  475.6288
C     1.268815    0.502807   -0.018131    0.582540    0.187239    0.002014
C     1.201329   -0.830727    0.094145    0.483449    0.252558   -0.005330
N    -0.040731   -1.556060    0.128265    0.118384    0.634311   -0.058994
C    -1.199062   -0.640064    0.014430   -0.545171    0.106464   -0.039795
N    -1.034105    0.722679   -0.099159   -0.180590   -0.095311    0.010910
C     0.143985    1.475839   -0.126674    0.144652   -0.507035    0.042669
O    -2.257386   -1.183935    0.024099   -0.464694   -0.086578    0.000268
O     0.203255    2.687918   -0.224464   -0.058486   -0.555152    0.043359
H     2.092907   -1.458235    0.166138    0.180709   -0.121517    0.046015
H    -0.154063   -2.117067    0.995618    0.234868    0.628298   -0.068162
H    -1.939681    1.206979   -0.173187    0.229516    0.492892    0.006690
H     2.278866    0.923614   -0.032431    0.336342    0.663220   -0.022025
H    -0.114493   -2.256891   -0.636103    0.257378    0.565394    0.018455
13
* Frequency(10)  475.6288
C     1.215849    0.485783   -0.018314    0.582540    0.187239    0.002014
C     1.157373   -0.853690    0.094629    0.483449    0.252558   -0.005330
N    -0.051495   -1.613732    0.133628    0.118384    0.634311   -0.058994
C    -1.149494   -0.649744    0.018048   -0.545171    0.106464   -0.039795
N    -1.017685    0.731345   -0.100151   -0.180590   -0.095311    0.010910
C     0.130833    1.521939   -0.130554    0.144652   -0.507035    0.042669
O    -2.215135   -1.176063    0.024074   -0.464694   -0.086578    0.000268
O     0.208573    2.738394   -0.228406   -0.058486   -0.555152    0.043359
H     2.076477   -1.447187    0.161955    0.180709   -0.121517    0.046015
H    -0.175418   -2.174193    1.001815    0.234868    0.628298   -0.068162
H    -1.960549    1.162165   -0.173795    0.229516    0.492892    0.006690
H     2.248286    0.863313   -0.030428    0.336342    0.663220   -0.022025
H    -0.137895   -2.308298   -0.637781    0.257378    0.565394    0.018455
13
* Frequency(10)  475.6288
C     1.179139    0.473983   -0.018441    0.582540    0.187239    0.002014
C     1.126908   -0.869605    0.094965    0.483449    0.252558   -0.005330
N    -0.058955   -1.653705    0.137346    0.118384    0.634311   -0.058994
C    -1.115139   -0.656453    0.020556   -0.545171    0.106464   -0.039795
N    -1.006305    0.737351   -0.100838   -0.180590   -0.095311    0.010910
C     0.121717    1.553891   -0.133243    0.144652   -0.507035    0.042669
O    -2.185851   -1.170607    0.024057   -0.464694   -0.086578    0.000268
O     0.212259    2.773378   -0.231139   -0.058486   -0.555152    0.043359
H     2.065089   -1.439529    0.159055    0.180709   -0.121517    0.046015
H    -0.190219   -2.213786    1.006111    0.234868    0.628298   -0.068162
H    -1.975012    1.131104   -0.174217    0.229516    0.492892    0.006690
H     2.227090    0.821518   -0.029040    0.336342    0.663220   -0.022025
H    -0.154114   -2.343927   -0.638944    0.257378    0.565394    0.018455
13
* Frequency(10)  475.6288
C     1.162662    0.468687   -0.018498    0.582540    0.187239    0.002014
C     1.113234   -0.876749    0.095116    0.483449    0.252558   -0.005330
N    -0.062303   -1.671646    0.139015    0.118384    0.634311   -0.058994
C    -1.099719   -0.659465    0.021682   -0.545171    0.106464   -0.039795
N    -1.001197    0.740047   -0.101147   -0.180590   -0.095311    0.010910
C     0.117626    1.568232   -0.134449    0.144652   -0.507035    0.042669
O    -2.172708   -1.168158    0.024050   -0.464694   -0.086578    0.000268
O     0.213913    2.789080   -0.232365   -0.058486   -0.555152    0.043359
H     2.059978   -1.436092    0.157753    0.180709   -0.121517    0.046015
H    -0.196862   -2.231557    1.008039    0.234868    0.628298   -0.068162
H    -1.981504    1.117163   -0.174406    0.229516    0.492892    0.006690
H     2.217577    0.802760   -0.028417    0.336342    0.663220   -0.022025
H    -0.161394   -2.359919   -0.639466    0.257378    0.565394    0.018455
13
* Frequency(10)  475.6288
C     1.168205    0.470469   -0.018479    0.582540    0.187239    0.002014
C     1.117834   -0.874346    0.095065    0.483449    0.252558   -0.005330
N    -0.061177   -1.665610    0.138453    0.118384    0.634311   -0.058994
C    -1.104906   -0.658452    0.021303   -0.545171    0.106464   -0.039795
N    -1.002915    0.739140   -0.101043   -0.180590   -0.095311    0.010910
C     0.119002    1.563408   -0.134043    0.144652   -0.507035    0.042669
O    -2.177129   -1.168982    0.024052   -0.464694   -0.086578    0.000268
O     0.213357    2.783798   -0.231953   -0.058486   -0.555152    0.043359
H     2.061697   -1.437248    0.158191    0.180709   -0.121517    0.046015
H    -0.194627   -2.225579    1.007390    0.234868    0.628298   -0.068162
H    -1.979320    1.121853   -0.174342    0.229516    0.492892    0.006690
H     2.220777    0.809070   -0.028627    0.336342    0.663220   -0.022025
H    -0.158945   -2.354539   -0.639290    0.257378    0.565394    0.018455
13
* Frequency(10)  475.6288
C     1.195166    0.479135   -0.018386    0.582540    0.187239    0.002014
C     1.140208   -0.862657    0.094819    0.483449    0.252558   -0.005330
N    -0.055698   -1.636253    0.135723    0.118384    0.634311   -0.058994
C    -1.130138   -0.653524    0.019461   -0.545171    0.106464   -0.039795
N    -1.011273    0.734729   -0.100538   -0.180590   -0.095311    0.010910
C     0.125697    1.539941   -0.132069    0.144652   -0.507035    0.042669
O    -2.198636   -1.172989    0.024065   -0.464694   -0.086578    0.000268
O     0.210650    2.758104   -0.229946   -0.058486   -0.555152    0.043359
H     2.070061   -1.442872    0.160321    0.180709   -0.121517    0.046015
H    -0.183757   -2.196500    1.004235    0.234868    0.628298   -0.068162
H    -1.968698    1.144665   -0.174033    0.229516    0.492892    0.006690
H     2.236344    0.839765   -0.029646    0.336342    0.663220   -0.022025
H    -0.147033   -2.328372   -0.638436    0.257378    0.565394    0.018455
13
* Frequency(10)  475.6288
C     1.240624    0.493746   -0.018228    0.582540    0.187239    0.002014
C     1.177934   -0.842949    0.094403    0.483449    0.252558   -0.005330
N    -0.046460   -1.586756    0.131119    0.118384    0.634311   -0.058994
C    -1.172680   -0.645217    0.016356   -0.545171    0.106464   -0.039795
N    -1.025366    0.727291   -0.099687   -0.180590   -0.095311    0.010910
C     0.136985    1.500375   -0.128739    0.144652   -0.507035    0.042669
O    -2.234898   -1.179745    0.024086   -0.464694   -0.086578    0.000268
O     0.206086    2.714784   -0.226562   -0.058486   -0.555152    0.043359
H     2.084162   -1.452355    0.163911    0.180709   -0.121517    0.046015
H    -0.165429   -2.147472    0.998916    0.234868    0.628298   -0.068162
H    -1.950788    1.183127   -0.173511    0.229516    0.492892    0.006690
H     2.262590    0.891519   -0.031365    0.336342    0.663220   -0.022025
H    -0.126949   -2.284252   -0.636996    0.257378    0.565394    0.018455
13
* Frequency(10)  475.6288
C     1.299652    0.512719   -0.018024    0.582540    0.187239    0.002014
C     1.226921   -0.817357    0.093862    0.483449    0.252558   -0.005330
N    -0.034464   -1.522481    0.125142    0.118384    0.634311   -0.058994
C    -1.227922   -0.634429    0.012324   -0.545171    0.106464   -0.039795
N    -1.043665    0.717633   -0.098581   -0.180590   -0.095311    0.010910
C     0.151642    1.448998   -0.124415    0.144652   -0.507035    0.042669
O    -2.281985   -1.188518    0.024113   -0.464694   -0.086578    0.000268
O     0.200159    2.658530   -0.222169   -0.058486   -0.555152    0.043359
H     2.102473   -1.464668    0.168574    0.180709   -0.121517    0.046015
H    -0.141630   -2.083807    0.992010    0.234868    0.628298   -0.068162
H    -1.927531    1.233071   -0.172833    0.229516    0.492892    0.006690
H     2.296671    0.958722   -0.033597    0.336342    0.663220   -0.022025
H    -0.100869   -2.226961   -0.635126    0.257378    0.565394    0.018455
13
* Frequency(10)  475.6288
C     1.365855    0.533997   -0.017795    0.582540    0.187239    0.002014
C     1.281863   -0.788655    0.093257    0.483449    0.252558   -0.005330
N    -0.021011   -1.450395    0.118437    0.118384    0.634311   -0.058994
C    -1.289878   -0.622329    0.007801   -0.545171    0.106464   -0.039795
N    -1.064188    0.706802   -0.097341   -0.180590   -0.095311    0.010910
C     0.168081    1.391376   -0.119566    0.144652   -0.507035    0.042669
O    -2.334795   -1.198357    0.024143   -0.464694   -0.086578    0.000268
O     0.193513    2.595440   -0.217241   -0.058486   -0.555152    0.043359
H     2.123010   -1.478478    0.173803    0.180709   -0.121517    0.046015
H    -0.114939   -2.012404    0.984263    0.234868    0.628298   -0.068162
H    -1.901448    1.289086   -0.172072    0.229516    0.492892    0.006690
H     2.334895    1.034094   -0.036100    0.336342    0.663220   -0.022025
H    -0.071619   -2.162707   -0.633029    0.257378    0.565394    0.018455
