13
* (null), Energy   -1000.0000000
C     1.621188    0.403598    0.009016    0.013487    0.000725   -0.000639
C     1.539018   -0.919147    0.120543   -0.019389    0.032601   -0.002791
N     0.234586   -1.584887    0.143046   -0.028828   -0.071873    0.006294
C    -1.040982   -0.751715    0.035244    1.221556    0.976200   -0.053089
N    -0.811196    0.577219   -0.071669   -0.111008   -0.238963    0.018216
C     0.423111    1.261638   -0.096194   -0.056502   -0.318872    0.025438
O    -2.084970   -1.326745    0.055920   -0.819759   -0.463673    0.018166
O     0.451027    2.464431   -0.197533    0.019965    0.218729   -0.017373
H     2.382077   -1.607559    0.201521   -0.061600    0.009926   -0.005006
H     0.139969   -2.151905    1.007849    0.277946   -0.158568    0.039642
H    -1.647994    1.161186   -0.147295    0.289288    0.356051   -0.027177
H     2.590366    0.904195   -0.008805    0.037476   -0.057817    0.005196
H     0.188398   -2.293879   -0.614969    0.282299   -0.172129    0.004543
13
* Frequency(33) 1912.0576
C     1.622721    0.403681    0.008943    0.013487    0.000725   -0.000639
C     1.536814   -0.915442    0.120225   -0.019389    0.032601   -0.002791
N     0.231310   -1.593055    0.143761   -0.028828   -0.071873    0.006294
C    -0.902158   -0.640775    0.029211    1.221556    0.976200   -0.053089
N    -0.823812    0.550062   -0.069599   -0.111008   -0.238963    0.018216
C     0.416690    1.225400   -0.093303   -0.056502   -0.318872    0.025438
O    -2.178131   -1.379439    0.057985   -0.819759   -0.463673    0.018166
O     0.453296    2.489288   -0.199507    0.019965    0.218729   -0.017373
H     2.375076   -1.606431    0.200952   -0.061600    0.009926   -0.005006
H     0.171556   -2.169925    1.012354    0.277946   -0.158568    0.039642
H    -1.615118    1.201649   -0.150384    0.289288    0.356051   -0.027177
H     2.594625    0.897624   -0.008214    0.037476   -0.057817    0.005196
H     0.220479   -2.313440   -0.614452    0.282299   -0.172129    0.004543
13
* Frequency(33) 1912.0576
C     1.624088    0.403754    0.008879    0.013487    0.000725   -0.000639
C     1.534850   -0.912139    0.119943   -0.019389    0.032601   -0.002791
N     0.228389   -1.600338    0.144399   -0.028828   -0.071873    0.006294
C    -0.778379   -0.541857    0.023832    1.221556    0.976200   -0.053089
N    -0.835060    0.525848   -0.067753   -0.111008   -0.238963    0.018216
C     0.410965    1.193089   -0.090725   -0.056502   -0.318872    0.025438
O    -2.261197   -1.426423    0.059826   -0.819759   -0.463673    0.018166
O     0.455319    2.511452   -0.201268    0.019965    0.218729   -0.017373
H     2.368835   -1.605425    0.200444   -0.061600    0.009926   -0.005006
H     0.199720   -2.185993    1.016371    0.277946   -0.158568    0.039642
H    -1.585805    1.237728   -0.153138    0.289288    0.356051   -0.027177
H     2.598422    0.891766   -0.007688    0.037476   -0.057817    0.005196
H     0.249085   -2.330882   -0.613992    0.282299   -0.172129    0.004543
13
* Frequency(33) 1912.0576
C     1.625140    0.403811    0.008829    0.013487    0.000725   -0.000639
C     1.533337   -0.909595    0.119725   -0.019389    0.032601   -0.002791
N     0.226139   -1.605946    0.144890   -0.028828   -0.071873    0.006294
C    -0.683056   -0.465680    0.019689    1.221556    0.976200   -0.053089
N    -0.843723    0.507201   -0.066331   -0.111008   -0.238963    0.018216
C     0.406555    1.168206   -0.088740   -0.056502   -0.318872    0.025438
O    -2.325166   -1.462605    0.061243   -0.819759   -0.463673    0.018166
O     0.456877    2.528520   -0.202623    0.019965    0.218729   -0.017373
H     2.364028   -1.604650    0.200054   -0.061600    0.009926   -0.005006
H     0.221409   -2.198366    1.019464    0.277946   -0.158568    0.039642
H    -1.563230    1.265512   -0.155259    0.289288    0.356051   -0.027177
H     2.601346    0.887254   -0.007282    0.037476   -0.057817    0.005196
H     0.271114   -2.344314   -0.613638    0.282299   -0.172129    0.004543
13
* Frequency(33) 1912.0576
C     1.625764    0.403844    0.008799    0.013487    0.000725   -0.000639
C     1.532439   -0.908086    0.119596   -0.019389    0.032601   -0.002791
N     0.224805   -1.609273    0.145182   -0.028828   -0.071873    0.006294
C    -0.626520   -0.420500    0.017232    1.221556    0.976200   -0.053089
N    -0.848860    0.496141   -0.065488   -0.111008   -0.238963    0.018216
C     0.403940    1.153448   -0.087563   -0.056502   -0.318872    0.025438
O    -2.363106   -1.484064    0.062084   -0.819759   -0.463673    0.018166
O     0.457801    2.538643   -0.203427    0.019965    0.218729   -0.017373
H     2.361177   -1.604191    0.199822   -0.061600    0.009926   -0.005006
H     0.234273   -2.205705    1.021299    0.277946   -0.158568    0.039642
H    -1.549842    1.281991   -0.156516    0.289288    0.356051   -0.027177
H     2.603081    0.884578   -0.007042    0.037476   -0.057817    0.005196
H     0.284179   -2.352280   -0.613427    0.282299   -0.172129    0.004543
13
* Frequency(33) 1912.0576
C     1.625893    0.403851    0.008793    0.013487    0.000725   -0.000639
C     1.532255   -0.907776    0.119569   -0.019389    0.032601   -0.002791
N     0.224531   -1.609956    0.145241   -0.028828   -0.071873    0.006294
C    -0.614898   -0.411212    0.016727    1.221556    0.976200   -0.053089
N    -0.849916    0.493868   -0.065315   -0.111008   -0.238963    0.018216
C     0.403403    1.150414   -0.087321   -0.056502   -0.318872    0.025438
O    -2.370906   -1.488476    0.062257   -0.819759   -0.463673    0.018166
O     0.457991    2.540724   -0.203593    0.019965    0.218729   -0.017373
H     2.360591   -1.604096    0.199774   -0.061600    0.009926   -0.005006
H     0.236918   -2.207214    1.021676    0.277946   -0.158568    0.039642
H    -1.547089    1.285378   -0.156775    0.289288    0.356051   -0.027177
H     2.603437    0.884028   -0.006992    0.037476   -0.057817    0.005196
H     0.286865   -2.353918   -0.613384    0.282299   -0.172129    0.004543
13
* Frequency(33) 1912.0576
C     1.625511    0.403830    0.008811    0.013487    0.000725   -0.000639
C     1.532803   -0.908698    0.119648   -0.019389    0.032601   -0.002791
N     0.225346   -1.607924    0.145063   -0.028828   -0.071873    0.006294
C    -0.649448   -0.438822    0.018228    1.221556    0.976200   -0.053089
N    -0.846777    0.500627   -0.065830   -0.111008   -0.238963    0.018216
C     0.405001    1.159433   -0.088040   -0.056502   -0.318872    0.025438
O    -2.347720   -1.475362    0.061743   -0.819759   -0.463673    0.018166
O     0.457426    2.534538   -0.203101    0.019965    0.218729   -0.017373
H     2.362333   -1.604377    0.199916   -0.061600    0.009926   -0.005006
H     0.229056   -2.202729    1.020555    0.277946   -0.158568    0.039642
H    -1.555271    1.275308   -0.156006    0.289288    0.356051   -0.027177
H     2.602378    0.885663   -0.007139    0.037476   -0.057817    0.005196
H     0.278880   -2.349050   -0.613513    0.282299   -0.172129    0.004543
13
* Frequency(33) 1912.0576
C     1.624661    0.403785    0.008851    0.013487    0.000725   -0.000639
C     1.534025   -0.910752    0.119824   -0.019389    0.032601   -0.002791
N     0.227163   -1.603394    0.144667   -0.028828   -0.071873    0.006294
C    -0.726427   -0.500340    0.021574    1.221556    0.976200   -0.053089
N    -0.839781    0.515685   -0.066978   -0.111008   -0.238963    0.018216
C     0.408562    1.179528   -0.089643   -0.056502   -0.318872    0.025438
O    -2.296061   -1.446142    0.060598   -0.819759   -0.463673    0.018166
O     0.456168    2.520754   -0.202007    0.019965    0.218729   -0.017373
H     2.366215   -1.605003    0.200232   -0.061600    0.009926   -0.005006
H     0.211541   -2.192736    1.018057    0.277946   -0.158568    0.039642
H    -1.573501    1.252871   -0.154294    0.289288    0.356051   -0.027177
H     2.600016    0.889307   -0.007467    0.037476   -0.057817    0.005196
H     0.261091   -2.338202   -0.613799    0.282299   -0.172129    0.004543
13
* Frequency(33) 1912.0576
C     1.623435    0.403719    0.008910    0.013487    0.000725   -0.000639
C     1.535788   -0.913717    0.120078   -0.019389    0.032601   -0.002791
N     0.229784   -1.596859    0.144095   -0.028828   -0.071873    0.006294
C    -0.837493   -0.589098    0.026401    1.221556    0.976200   -0.053089
N    -0.829688    0.537412   -0.068634   -0.111008   -0.238963    0.018216
C     0.413699    1.208520   -0.091956   -0.056502   -0.318872    0.025438
O    -2.221527   -1.403984    0.058946   -0.819759   -0.463673    0.018166
O     0.454353    2.500867   -0.200427    0.019965    0.218729   -0.017373
H     2.371816   -1.605905    0.200687   -0.061600    0.009926   -0.005006
H     0.186270   -2.178319    1.014452    0.277946   -0.158568    0.039642
H    -1.599804    1.220498   -0.151823    0.289288    0.356051   -0.027177
H     2.596609    0.894564   -0.007939    0.037476   -0.057817    0.005196
H     0.235424   -2.322552   -0.614212    0.282299   -0.172129    0.004543
13
* Frequency(33) 1912.0576
C     1.621965    0.403640    0.008979    0.013487    0.000725   -0.000639
C     1.537901   -0.917269    0.120382   -0.019389    0.032601   -0.002791
N     0.232925   -1.589027    0.143409   -0.028828   -0.071873    0.006294
C    -0.970610   -0.695478    0.032186    1.221556    0.976200   -0.053089
N    -0.817591    0.563453   -0.070619   -0.111008   -0.238963    0.018216
C     0.419856    1.243269   -0.094728   -0.056502   -0.318872    0.025438
O    -2.132195   -1.353456    0.056967   -0.819759   -0.463673    0.018166
O     0.452178    2.477031   -0.198534    0.019965    0.218729   -0.017373
H     2.378528   -1.606987    0.201232   -0.061600    0.009926   -0.005006
H     0.155981   -2.161039    1.010132    0.277946   -0.158568    0.039642
H    -1.631329    1.181698   -0.148861    0.289288    0.356051   -0.027177
H     2.592525    0.900864   -0.008505    0.037476   -0.057817    0.005196
H     0.204660   -2.303795   -0.614707    0.282299   -0.172129    0.004543
13
* Frequency(33) 1912.0576
C     1.620411    0.403556    0.009053    0.013487    0.000725   -0.000639
C     1.540135   -0.921025    0.120703   -0.019389    0.032601   -0.002791
N     0.236247   -1.580746    0.142684   -0.028828   -0.071873    0.006294
C    -1.111353   -0.807952    0.038303    1.221556    0.976200   -0.053089
N    -0.804801    0.590985   -0.072718   -0.111008   -0.238963    0.018216
C     0.426366    1.280008   -0.097659   -0.056502   -0.318872    0.025438
O    -2.037745   -1.300034    0.054874   -0.819759   -0.463673    0.018166
O     0.449877    2.451830   -0.196532    0.019965    0.218729   -0.017373
H     2.385626   -1.608131    0.201809   -0.061600    0.009926   -0.005006
H     0.123957   -2.142770    1.005565    0.277946   -0.158568    0.039642
H    -1.664659    1.140675   -0.145730    0.289288    0.356051   -0.027177
H     2.588207    0.907526   -0.009104    0.037476   -0.057817    0.005196
H     0.172135   -2.283963   -0.615231    0.282299   -0.172129    0.004543
13
* Frequency(33) 1912.0576
C     1.618941    0.403477    0.009123    0.013487    0.000725   -0.000639
C     1.542248   -0.924578    0.121008   -0.019389    0.032601   -0.002791
N     0.239388   -1.572914    0.141998   -0.028828   -0.071873    0.006294
C    -1.244471   -0.914332    0.044088    1.221556    0.976200   -0.053089
N    -0.792705    0.617026   -0.074703   -0.111008   -0.238963    0.018216
C     0.432523    1.314756   -0.100431   -0.056502   -0.318872    0.025438
O    -1.948413   -1.249505    0.052894   -0.819759   -0.463673    0.018166
O     0.447702    2.427994   -0.194639    0.019965    0.218729   -0.017373
H     2.392338   -1.609212    0.202355   -0.061600    0.009926   -0.005006
H     0.093668   -2.125490    1.001245    0.277946   -0.158568    0.039642
H    -1.696184    1.101875   -0.142768    0.289288    0.356051   -0.027177
H     2.584123    0.913826   -0.009670    0.037476   -0.057817    0.005196
H     0.141372   -2.265205   -0.615726    0.282299   -0.172129    0.004543
13
* Frequency(33) 1912.0576
C     1.617715    0.403412    0.009181    0.013487    0.000725   -0.000639
C     1.544011   -0.927542    0.121261   -0.019389    0.032601   -0.002791
N     0.242009   -1.566379    0.141425   -0.028828   -0.071873    0.006294
C    -1.355537   -1.003089    0.048915    1.221556    0.976200   -0.053089
N    -0.782611    0.638753   -0.076359   -0.111008   -0.238963    0.018216
C     0.437661    1.343749   -0.102744   -0.056502   -0.318872    0.025438
O    -1.873879   -1.207347    0.051243   -0.819759   -0.463673    0.018166
O     0.445886    2.408107   -0.193059    0.019965    0.218729   -0.017373
H     2.397939   -1.610115    0.202810   -0.061600    0.009926   -0.005006
H     0.068397   -2.111073    0.997641    0.277946   -0.158568    0.039642
H    -1.722487    1.069502   -0.140297    0.289288    0.356051   -0.027177
H     2.580716    0.919083   -0.010143    0.037476   -0.057817    0.005196
H     0.115705   -2.249555   -0.616139    0.282299   -0.172129    0.004543
13
* Frequency(33) 1912.0576
C     1.616865    0.403366    0.009221    0.013487    0.000725   -0.000639
C     1.545232   -0.929596    0.121437   -0.019389    0.032601   -0.002791
N     0.243826   -1.561850    0.141029   -0.028828   -0.071873    0.006294
C    -1.432516   -1.064607    0.052261    1.221556    0.976200   -0.053089
N    -0.775616    0.653811   -0.077507   -0.111008   -0.238963    0.018216
C     0.441221    1.363843   -0.104347   -0.056502   -0.318872    0.025438
O    -1.822220   -1.178128    0.050098   -0.819759   -0.463673    0.018166
O     0.444628    2.394323   -0.191964    0.019965    0.218729   -0.017373
H     2.401821   -1.610740    0.203125   -0.061600    0.009926   -0.005006
H     0.050881   -2.101080    0.995143    0.277946   -0.158568    0.039642
H    -1.740717    1.047064   -0.138585    0.289288    0.356051   -0.027177
H     2.578354    0.922726   -0.010470    0.037476   -0.057817    0.005196
H     0.097915   -2.238708   -0.616425    0.282299   -0.172129    0.004543
13
* Frequency(33) 1912.0576
C     1.616484    0.403345    0.009239    0.013487    0.000725   -0.000639
C     1.545781   -0.930519    0.121516   -0.019389    0.032601   -0.002791
N     0.244641   -1.559817    0.140851   -0.028828   -0.071873    0.006294
C    -1.467066   -1.092218    0.053762    1.221556    0.976200   -0.053089
N    -0.772476    0.660570   -0.078023   -0.111008   -0.238963    0.018216
C     0.442819    1.372862   -0.105066   -0.056502   -0.318872    0.025438
O    -1.799034   -1.165014    0.049584   -0.819759   -0.463673    0.018166
O     0.444064    2.388137   -0.191473    0.019965    0.218729   -0.017373
H     2.403563   -1.611021    0.203267   -0.061600    0.009926   -0.005006
H     0.043020   -2.096595    0.994022    0.277946   -0.158568    0.039642
H    -1.748899    1.036994   -0.137816    0.289288    0.356051   -0.027177
H     2.577294    0.924362   -0.010617    0.037476   -0.057817    0.005196
H     0.089930   -2.233839   -0.616554    0.282299   -0.172129    0.004543
13
* Frequency(33) 1912.0576
C     1.616612    0.403352    0.009233    0.013487    0.000725   -0.000639
C     1.545596   -0.930208    0.121490   -0.019389    0.032601   -0.002791
N     0.244367   -1.560501    0.140911   -0.028828   -0.071873    0.006294
C    -1.455444   -1.082930    0.053257    1.221556    0.976200   -0.053089
N    -0.773533    0.658297   -0.077849   -0.111008   -0.238963    0.018216
C     0.442282    1.369828   -0.104824   -0.056502   -0.318872    0.025438
O    -1.806834   -1.169425    0.049757   -0.819759   -0.463673    0.018166
O     0.444254    2.390218   -0.191638    0.019965    0.218729   -0.017373
H     2.402977   -1.610927    0.203219   -0.061600    0.009926   -0.005006
H     0.045665   -2.098104    0.994399    0.277946   -0.158568    0.039642
H    -1.746147    1.040381   -0.138075    0.289288    0.356051   -0.027177
H     2.577651    0.923812   -0.010568    0.037476   -0.057817    0.005196
H     0.092616   -2.235477   -0.616510    0.282299   -0.172129    0.004543
13
* Frequency(33) 1912.0576
C     1.617236    0.403386    0.009203    0.013487    0.000725   -0.000639
C     1.544699   -0.928700    0.121361   -0.019389    0.032601   -0.002791
N     0.243033   -1.563827    0.141202   -0.028828   -0.071873    0.006294
C    -1.398908   -1.037749    0.050800    1.221556    0.976200   -0.053089
N    -0.778670    0.647237   -0.077006   -0.111008   -0.238963    0.018216
C     0.439667    1.355070   -0.103647   -0.056502   -0.318872    0.025438
O    -1.844773   -1.190885    0.050598   -0.819759   -0.463673    0.018166
O     0.445178    2.400341   -0.192442    0.019965    0.218729   -0.017373
H     2.400126   -1.610467    0.202988   -0.061600    0.009926   -0.005006
H     0.058528   -2.105443    0.996233    0.277946   -0.158568    0.039642
H    -1.732758    1.056860   -0.139332    0.289288    0.356051   -0.027177
H     2.579385    0.921136   -0.010327    0.037476   -0.057817    0.005196
H     0.105682   -2.243443   -0.616300    0.282299   -0.172129    0.004543
13
* Frequency(33) 1912.0576
C     1.618289    0.403442    0.009153    0.013487    0.000725   -0.000639
C     1.543186   -0.926156    0.121143   -0.019389    0.032601   -0.002791
N     0.240783   -1.569436    0.141693   -0.028828   -0.071873    0.006294
C    -1.303585   -0.961573    0.046657    1.221556    0.976200   -0.053089
N    -0.787333    0.628590   -0.075585   -0.111008   -0.238963    0.018216
C     0.435258    1.330188   -0.101662   -0.056502   -0.318872    0.025438
O    -1.908742   -1.227067    0.052015   -0.819759   -0.463673    0.018166
O     0.446736    2.417409   -0.193798    0.019965    0.218729   -0.017373
H     2.395319   -1.609693    0.202597   -0.061600    0.009926   -0.005006
H     0.080218   -2.117816    0.999327    0.277946   -0.158568    0.039642
H    -1.710184    1.084644   -0.141453    0.289288    0.356051   -0.027177
H     2.582309    0.916624   -0.009922    0.037476   -0.057817    0.005196
H     0.127710   -2.256875   -0.615946    0.282299   -0.172129    0.004543
13
* Frequency(33) 1912.0576
C     1.619655    0.403516    0.009089    0.013487    0.000725   -0.000639
C     1.541221   -0.922852    0.120860   -0.019389    0.032601   -0.002791
N     0.237862   -1.576719    0.142331   -0.028828   -0.071873    0.006294
C    -1.179805   -0.862655    0.041278    1.221556    0.976200   -0.053089
N    -0.798581    0.604376   -0.073739   -0.111008   -0.238963    0.018216
C     0.429532    1.297876   -0.099084   -0.056502   -0.318872    0.025438
O    -1.991808   -1.274051    0.053856   -0.819759   -0.463673    0.018166
O     0.448759    2.439573   -0.195558    0.019965    0.218729   -0.017373
H     2.389077   -1.608687    0.202090   -0.061600    0.009926   -0.005006
H     0.108382   -2.133884    1.003344    0.277946   -0.158568    0.039642
H    -1.680870    1.120723   -0.144207    0.289288    0.356051   -0.027177
H     2.586107    0.910765   -0.009395    0.037476   -0.057817    0.005196
H     0.156316   -2.274317   -0.615485    0.282299   -0.172129    0.004543
13
* Frequency(33) 1912.0576
C     1.621188    0.403598    0.009016    0.013487    0.000725   -0.000639
C     1.539018   -0.919147    0.120543   -0.019389    0.032601   -0.002791
N     0.234586   -1.584887    0.143046   -0.028828   -0.071873    0.006294
C    -1.040982   -0.751715    0.035244    1.221556    0.976200   -0.053089
N    -0.811196    0.577219   -0.071669   -0.111008   -0.238963    0.018216
C     0.423111    1.261638   -0.096194   -0.056502   -0.318872    0.025438
O    -2.084970   -1.326745    0.055920   -0.819759   -0.463673    0.018166
O     0.451027    2.464431   -0.197533    0.019965    0.218729   -0.017373
H     2.382077   -1.607559    0.201521   -0.061600    0.009926   -0.005006
H     0.139969   -2.151905    1.007849    0.277946   -0.158568    0.039642
H    -1.647994    1.161186   -0.147295    0.289288    0.356051   -0.027177
H     2.590366    0.904195   -0.008805    0.037476   -0.057817    0.005196
H     0.188398   -2.293879   -0.614969    0.282299   -0.172129    0.004543
