13
* (null), Energy   -1000.0000000
C     1.621188    0.403598    0.009016   -0.007686   -0.006608   -0.006702
C     1.539018   -0.919147    0.120543    0.009537    0.010751    0.123858
N     0.234586   -1.584887    0.143046   -0.027690    0.001235   -0.019856
C    -1.040982   -0.751715    0.035244    0.005845   -0.009058   -0.125009
N    -0.811196    0.577219   -0.071669   -0.008898    0.001156    0.009971
C     0.423111    1.261638   -0.096194    0.021227    0.002105    0.007410
O    -2.084970   -1.326745    0.055920    0.003921    0.003598    0.018771
O     0.451027    2.464431   -0.197533   -0.003475   -0.001347   -0.001411
H     2.382077   -1.607559    0.201521    0.057555    0.038122   -0.129376
H     0.139969   -2.151905    1.007849    1.467632   -0.107992    0.074572
H    -1.647994    1.161186   -0.147295   -0.029790   -0.025571    0.033937
H     2.590366    0.904195   -0.008805   -0.014383    0.000366   -0.115666
H     0.188398   -2.293879   -0.614969   -1.324309    0.059625    0.003629
13
* Frequency(25) 1298.5779
C     1.620315    0.402847    0.008254   -0.007686   -0.006608   -0.006702
C     1.540102   -0.917925    0.134619    0.009537    0.010751    0.123858
N     0.231439   -1.584746    0.140790   -0.027690    0.001235   -0.019856
C    -1.040318   -0.752744    0.021038    0.005845   -0.009058   -0.125009
N    -0.812208    0.577350   -0.070536   -0.008898    0.001156    0.009971
C     0.425523    1.261877   -0.095351    0.021227    0.002105    0.007410
O    -2.084524   -1.326336    0.058054    0.003921    0.003598    0.018771
O     0.450633    2.464277   -0.197693   -0.003475   -0.001347   -0.001411
H     2.388618   -1.603226    0.186818    0.057555    0.038122   -0.129376
H     0.306758   -2.164177    1.016323    1.467632   -0.107992    0.074572
H    -1.651380    1.158280   -0.143439   -0.029790   -0.025571    0.033937
H     2.588731    0.904236   -0.021949   -0.014383    0.000366   -0.115666
H     0.037897   -2.287103   -0.614556   -1.324309    0.059625    0.003629
13
* Frequency(25) 1298.5779
C     1.619536    0.402178    0.007575   -0.007686   -0.006608   -0.006702
C     1.541068   -0.916836    0.147169    0.009537    0.010751    0.123858
N     0.228633   -1.584621    0.138778   -0.027690    0.001235   -0.019856
C    -1.039725   -0.753662    0.008371    0.005845   -0.009058   -0.125009
N    -0.813109    0.577467   -0.069525   -0.008898    0.001156    0.009971
C     0.427674    1.262091   -0.094601    0.021227    0.002105    0.007410
O    -2.084127   -1.325971    0.059956    0.003921    0.003598    0.018771
O     0.450280    2.464141   -0.197836   -0.003475   -0.001347   -0.001411
H     2.394450   -1.599363    0.173708    0.057555    0.038122   -0.129376
H     0.455472   -2.175120    1.023880    1.467632   -0.107992    0.074572
H    -1.654398    1.155689   -0.140000   -0.029790   -0.025571    0.033937
H     2.587274    0.904273   -0.033670   -0.014383    0.000366   -0.115666
H    -0.096295   -2.281061   -0.614189   -1.324309    0.059625    0.003629
13
* Frequency(25) 1298.5779
C     1.618936    0.401662    0.007052   -0.007686   -0.006608   -0.006702
C     1.541812   -0.915997    0.156834    0.009537    0.010751    0.123858
N     0.226473   -1.584525    0.137228   -0.027690    0.001235   -0.019856
C    -1.039269   -0.754369   -0.001384    0.005845   -0.009058   -0.125009
N    -0.813804    0.577558   -0.068747   -0.008898    0.001156    0.009971
C     0.429331    1.262255   -0.094022    0.021227    0.002105    0.007410
O    -2.083821   -1.325691    0.061420    0.003921    0.003598    0.018771
O     0.450009    2.464036   -0.197946   -0.003475   -0.001347   -0.001411
H     2.398941   -1.596389    0.163612    0.057555    0.038122   -0.129376
H     0.569997   -2.183547    1.029699    1.467632   -0.107992    0.074572
H    -1.656723    1.153694   -0.137352   -0.029790   -0.025571    0.033937
H     2.586151    0.904302   -0.042696   -0.014383    0.000366   -0.115666
H    -0.199636   -2.276408   -0.613905   -1.324309    0.059625    0.003629
13
* Frequency(25) 1298.5779
C     1.618580    0.401356    0.006742   -0.007686   -0.006608   -0.006702
C     1.542254   -0.915499    0.162567    0.009537    0.010751    0.123858
N     0.225191   -1.584468    0.136309   -0.027690    0.001235   -0.019856
C    -1.038999   -0.754788   -0.007170    0.005845   -0.009058   -0.125009
N    -0.814215    0.577611   -0.068286   -0.008898    0.001156    0.009971
C     0.430313    1.262352   -0.093679    0.021227    0.002105    0.007410
O    -2.083639   -1.325524    0.062289    0.003921    0.003598    0.018771
O     0.449849    2.463973   -0.198011   -0.003475   -0.001347   -0.001411
H     2.401605   -1.594624    0.157625    0.057555    0.038122   -0.129376
H     0.637922   -2.188545    1.033150    1.467632   -0.107992    0.074572
H    -1.658102    1.152510   -0.135781   -0.029790   -0.025571    0.033937
H     2.585486    0.904319   -0.048049   -0.014383    0.000366   -0.115666
H    -0.260927   -2.273649   -0.613737   -1.324309    0.059625    0.003629
13
* Frequency(25) 1298.5779
C     1.618507    0.401293    0.006678   -0.007686   -0.006608   -0.006702
C     1.542344   -0.915397    0.163745    0.009537    0.010751    0.123858
N     0.224928   -1.584456    0.136120   -0.027690    0.001235   -0.019856
C    -1.038943   -0.754874   -0.008359    0.005845   -0.009058   -0.125009
N    -0.814300    0.577622   -0.068191   -0.008898    0.001156    0.009971
C     0.430515    1.262372   -0.093609    0.021227    0.002105    0.007410
O    -2.083602   -1.325490    0.062468    0.003921    0.003598    0.018771
O     0.449815    2.463961   -0.198025   -0.003475   -0.001347   -0.001411
H     2.402152   -1.594262    0.156394    0.057555    0.038122   -0.129376
H     0.651886   -2.189573    1.033860    1.467632   -0.107992    0.074572
H    -1.658385    1.152267   -0.135458   -0.029790   -0.025571    0.033937
H     2.585349    0.904322   -0.049150   -0.014383    0.000366   -0.115666
H    -0.273527   -2.273081   -0.613703   -1.324309    0.059625    0.003629
13
* Frequency(25) 1298.5779
C     1.618725    0.401480    0.006868   -0.007686   -0.006608   -0.006702
C     1.542075   -0.915701    0.160242    0.009537    0.010751    0.123858
N     0.225711   -1.584491    0.136682   -0.027690    0.001235   -0.019856
C    -1.039109   -0.754618   -0.004824    0.005845   -0.009058   -0.125009
N    -0.814048    0.577589   -0.068473   -0.008898    0.001156    0.009971
C     0.429915    1.262313   -0.093818    0.021227    0.002105    0.007410
O    -2.083713   -1.325592    0.061937    0.003921    0.003598    0.018771
O     0.449914    2.463999   -0.197985   -0.003475   -0.001347   -0.001411
H     2.400525   -1.595340    0.160053    0.057555    0.038122   -0.129376
H     0.610375   -2.186518    1.031751    1.467632   -0.107992    0.074572
H    -1.657543    1.152990   -0.136418   -0.029790   -0.025571    0.033937
H     2.585756    0.904312   -0.045878   -0.014383    0.000366   -0.115666
H    -0.236071   -2.274768   -0.613806   -1.324309    0.059625    0.003629
13
* Frequency(25) 1298.5779
C     1.619209    0.401897    0.007290   -0.007686   -0.006608   -0.006702
C     1.541474   -0.916379    0.152437    0.009537    0.010751    0.123858
N     0.227456   -1.584569    0.137933   -0.027690    0.001235   -0.019856
C    -1.039477   -0.754047    0.003054    0.005845   -0.009058   -0.125009
N    -0.813488    0.577517   -0.069101   -0.008898    0.001156    0.009971
C     0.428577    1.262180   -0.094285    0.021227    0.002105    0.007410
O    -2.083960   -1.325818    0.060754    0.003921    0.003598    0.018771
O     0.450133    2.464084   -0.197896   -0.003475   -0.001347   -0.001411
H     2.396898   -1.597742    0.168206    0.057555    0.038122   -0.129376
H     0.517889   -2.179713    1.027051    1.467632   -0.107992    0.074572
H    -1.655665    1.154601   -0.138557   -0.029790   -0.025571    0.033937
H     2.586662    0.904289   -0.038589   -0.014383    0.000366   -0.115666
H    -0.152616   -2.278525   -0.614034   -1.324309    0.059625    0.003629
13
* Frequency(25) 1298.5779
C     1.619908    0.402497    0.007900   -0.007686   -0.006608   -0.006702
C     1.540607   -0.917356    0.141175    0.009537    0.010751    0.123858
N     0.229973   -1.584681    0.139739   -0.027690    0.001235   -0.019856
C    -1.040008   -0.753224    0.014420    0.005845   -0.009058   -0.125009
N    -0.812679    0.577412   -0.070008   -0.008898    0.001156    0.009971
C     0.426647    1.261989   -0.094959    0.021227    0.002105    0.007410
O    -2.084317   -1.326146    0.059047    0.003921    0.003598    0.018771
O     0.450449    2.464206   -0.197768   -0.003475   -0.001347   -0.001411
H     2.391665   -1.601208    0.179969    0.057555    0.038122   -0.129376
H     0.384449   -2.169894    1.020271    1.467632   -0.107992    0.074572
H    -1.652957    1.156926   -0.141642   -0.029790   -0.025571    0.033937
H     2.587970    0.904256   -0.028072   -0.014383    0.000366   -0.115666
H    -0.032208   -2.283946   -0.614364   -1.324309    0.059625    0.003629
13
* Frequency(25) 1298.5779
C     1.620745    0.403217    0.008630   -0.007686   -0.006608   -0.006702
C     1.539567   -0.918528    0.127678    0.009537    0.010751    0.123858
N     0.232991   -1.584816    0.141902   -0.027690    0.001235   -0.019856
C    -1.040645   -0.752236    0.028043    0.005845   -0.009058   -0.125009
N    -0.811709    0.577286   -0.071094   -0.008898    0.001156    0.009971
C     0.424334    1.261759   -0.095767    0.021227    0.002105    0.007410
O    -2.084744   -1.326538    0.057002    0.003921    0.003598    0.018771
O     0.450827    2.464353   -0.197614   -0.003475   -0.001347   -0.001411
H     2.385393   -1.605363    0.194068    0.057555    0.038122   -0.129376
H     0.224516   -2.158126    1.012145    1.467632   -0.107992    0.074572
H    -1.649710    1.159713   -0.145340   -0.029790   -0.025571    0.033937
H     2.589537    0.904216   -0.015468   -0.014383    0.000366   -0.115666
H     0.112107   -2.290444   -0.614760   -1.324309    0.059625    0.003629
13
* Frequency(25) 1298.5779
C     1.621631    0.403979    0.009402   -0.007686   -0.006608   -0.006702
C     1.538468   -0.919767    0.113407    0.009537    0.010751    0.123858
N     0.236181   -1.584958    0.144190   -0.027690    0.001235   -0.019856
C    -1.041319   -0.751193    0.042446    0.005845   -0.009058   -0.125009
N    -0.810684    0.577152   -0.072243   -0.008898    0.001156    0.009971
C     0.421888    1.261517   -0.096620    0.021227    0.002105    0.007410
O    -2.085196   -1.326952    0.054839    0.003921    0.003598    0.018771
O     0.451228    2.464508   -0.197452   -0.003475   -0.001347   -0.001411
H     2.378761   -1.609755    0.208974    0.057555    0.038122   -0.129376
H     0.055421   -2.145683    1.003553    1.467632   -0.107992    0.074572
H    -1.646278    1.162659   -0.149251   -0.029790   -0.025571    0.033937
H     2.591194    0.904174   -0.002141   -0.014383    0.000366   -0.115666
H     0.264689   -2.297314   -0.615178   -1.324309    0.059625    0.003629
13
* Frequency(25) 1298.5779
C     1.622468    0.404699    0.010132   -0.007686   -0.006608   -0.006702
C     1.537429   -0.920938    0.099910    0.009537    0.010751    0.123858
N     0.239198   -1.585093    0.146354   -0.027690    0.001235   -0.019856
C    -1.041956   -0.750206    0.056069    0.005845   -0.009058   -0.125009
N    -0.809714    0.577027   -0.073330   -0.008898    0.001156    0.009971
C     0.419575    1.261288   -0.097428    0.021227    0.002105    0.007410
O    -2.085623   -1.327344    0.052793    0.003921    0.003598    0.018771
O     0.451606    2.464655   -0.197298   -0.003475   -0.001347   -0.001411
H     2.372489   -1.613909    0.223072    0.057555    0.038122   -0.129376
H    -0.104512   -2.133915    0.995426    1.467632   -0.107992    0.074572
H    -1.643032    1.165446   -0.152949   -0.029790   -0.025571    0.033937
H     2.592762    0.904134    0.010463   -0.014383    0.000366   -0.115666
H     0.409003   -2.303811   -0.615573   -1.324309    0.059625    0.003629
13
* Frequency(25) 1298.5779
C     1.623167    0.405300    0.010742   -0.007686   -0.006608   -0.006702
C     1.536562   -0.921916    0.088649    0.009537    0.010751    0.123858
N     0.241716   -1.585205    0.148159   -0.027690    0.001235   -0.019856
C    -1.042487   -0.749382    0.067435    0.005845   -0.009058   -0.125009
N    -0.808905    0.576921   -0.074236   -0.008898    0.001156    0.009971
C     0.417645    1.261096   -0.098102    0.021227    0.002105    0.007410
O    -2.085979   -1.327671    0.051087    0.003921    0.003598    0.018771
O     0.451922    2.464778   -0.197170   -0.003475   -0.001347   -0.001411
H     2.367256   -1.617375    0.234835    0.057555    0.038122   -0.129376
H    -0.237951   -2.124096    0.988646    1.467632   -0.107992    0.074572
H    -1.640323    1.167771   -0.156034   -0.029790   -0.025571    0.033937
H     2.594070    0.904101    0.020980   -0.014383    0.000366   -0.115666
H     0.529412   -2.309232   -0.615903   -1.324309    0.059625    0.003629
13
* Frequency(25) 1298.5779
C     1.623652    0.405716    0.011164   -0.007686   -0.006608   -0.006702
C     1.535961   -0.922593    0.080844    0.009537    0.010751    0.123858
N     0.243461   -1.585283    0.149410   -0.027690    0.001235   -0.019856
C    -1.042855   -0.748811    0.075313    0.005845   -0.009058   -0.125009
N    -0.808344    0.576849   -0.074865   -0.008898    0.001156    0.009971
C     0.416307    1.260964   -0.098569    0.021227    0.002105    0.007410
O    -2.086226   -1.327898    0.049904    0.003921    0.003598    0.018771
O     0.452141    2.464863   -0.197081   -0.003475   -0.001347   -0.001411
H     2.363629   -1.619778    0.242988    0.057555    0.038122   -0.129376
H    -0.330437   -2.117291    0.983947    1.467632   -0.107992    0.074572
H    -1.638446    1.169382   -0.158173   -0.029790   -0.025571    0.033937
H     2.594976    0.904078    0.028269   -0.014383    0.000366   -0.115666
H     0.612866   -2.312990   -0.616132   -1.324309    0.059625    0.003629
13
* Frequency(25) 1298.5779
C     1.623869    0.405903    0.011354   -0.007686   -0.006608   -0.006702
C     1.535691   -0.922897    0.077340    0.009537    0.010751    0.123858
N     0.244244   -1.585318    0.149972   -0.027690    0.001235   -0.019856
C    -1.043021   -0.748555    0.078848    0.005845   -0.009058   -0.125009
N    -0.808093    0.576816   -0.075147   -0.008898    0.001156    0.009971
C     0.415707    1.260904   -0.098778    0.021227    0.002105    0.007410
O    -2.086337   -1.328000    0.049373    0.003921    0.003598    0.018771
O     0.452239    2.464901   -0.197041   -0.003475   -0.001347   -0.001411
H     2.362001   -1.620856    0.246648    0.057555    0.038122   -0.129376
H    -0.371948   -2.114236    0.981838    1.467632   -0.107992    0.074572
H    -1.637603    1.170105   -0.159133   -0.029790   -0.025571    0.033937
H     2.595383    0.904067    0.031540   -0.014383    0.000366   -0.115666
H     0.650323   -2.314676   -0.616235   -1.324309    0.059625    0.003629
13
* Frequency(25) 1298.5779
C     1.623796    0.405840    0.011290   -0.007686   -0.006608   -0.006702
C     1.535782   -0.922795    0.078519    0.009537    0.010751    0.123858
N     0.243981   -1.585306    0.149783   -0.027690    0.001235   -0.019856
C    -1.042965   -0.748641    0.077659    0.005845   -0.009058   -0.125009
N    -0.808177    0.576827   -0.075052   -0.008898    0.001156    0.009971
C     0.415909    1.260924   -0.098708    0.021227    0.002105    0.007410
O    -2.086300   -1.327966    0.049551    0.003921    0.003598    0.018771
O     0.452206    2.464888   -0.197054   -0.003475   -0.001347   -0.001411
H     2.362549   -1.620493    0.245417    0.057555    0.038122   -0.129376
H    -0.357984   -2.115264    0.982547    1.467632   -0.107992    0.074572
H    -1.637887    1.169862   -0.158810   -0.029790   -0.025571    0.033937
H     2.595246    0.904071    0.030440   -0.014383    0.000366   -0.115666
H     0.637723   -2.314109   -0.616200   -1.324309    0.059625    0.003629
13
* Frequency(25) 1298.5779
C     1.623440    0.405534    0.010980   -0.007686   -0.006608   -0.006702
C     1.536224   -0.922297    0.084251    0.009537    0.010751    0.123858
N     0.242699   -1.585249    0.148864   -0.027690    0.001235   -0.019856
C    -1.042694   -0.749060    0.071873    0.005845   -0.009058   -0.125009
N    -0.808589    0.576880   -0.074590   -0.008898    0.001156    0.009971
C     0.416891    1.261022   -0.098365    0.021227    0.002105    0.007410
O    -2.086119   -1.327799    0.050420    0.003921    0.003598    0.018771
O     0.452046    2.464825   -0.197120   -0.003475   -0.001347   -0.001411
H     2.365213   -1.618729    0.239429    0.057555    0.038122   -0.129376
H    -0.290059   -2.120262    0.985999    1.467632   -0.107992    0.074572
H    -1.639265    1.168679   -0.157239   -0.029790   -0.025571    0.033937
H     2.594580    0.904088    0.025086   -0.014383    0.000366   -0.115666
H     0.576431   -2.311349   -0.616032   -1.324309    0.059625    0.003629
13
* Frequency(25) 1298.5779
C     1.622840    0.405019    0.010457   -0.007686   -0.006608   -0.006702
C     1.536968   -0.921458    0.093916    0.009537    0.010751    0.123858
N     0.240538   -1.585152    0.147315   -0.027690    0.001235   -0.019856
C    -1.042238   -0.749767    0.062118    0.005845   -0.009058   -0.125009
N    -0.809283    0.576971   -0.073812   -0.008898    0.001156    0.009971
C     0.418548    1.261186   -0.097787    0.021227    0.002105    0.007410
O    -2.085813   -1.327518    0.051885    0.003921    0.003598    0.018771
O     0.451774    2.464720   -0.197230   -0.003475   -0.001347   -0.001411
H     2.369704   -1.615754    0.229333    0.057555    0.038122   -0.129376
H    -0.175534   -2.128689    0.991818    1.467632   -0.107992    0.074572
H    -1.641590    1.166683   -0.154591   -0.029790   -0.025571    0.033937
H     2.593458    0.904116    0.016061   -0.014383    0.000366   -0.115666
H     0.473090   -2.306696   -0.615749   -1.324309    0.059625    0.003629
13
* Frequency(25) 1298.5779
C     1.622062    0.404349    0.009778   -0.007686   -0.006608   -0.006702
C     1.537934   -0.920369    0.106467    0.009537    0.010751    0.123858
N     0.237733   -1.585027    0.145303   -0.027690    0.001235   -0.019856
C    -1.041646   -0.750685    0.049451    0.005845   -0.009058   -0.125009
N    -0.810185    0.577088   -0.072802   -0.008898    0.001156    0.009971
C     0.420699    1.261399   -0.097036    0.021227    0.002105    0.007410
O    -2.085415   -1.327154    0.053787    0.003921    0.003598    0.018771
O     0.451422    2.464584   -0.197373   -0.003475   -0.001347   -0.001411
H     2.375536   -1.611891    0.216224    0.057555    0.038122   -0.129376
H    -0.026820   -2.139632    0.999374    1.467632   -0.107992    0.074572
H    -1.644609    1.164092   -0.151152   -0.029790   -0.025571    0.033937
H     2.592000    0.904153    0.004340   -0.014383    0.000366   -0.115666
H     0.338898   -2.300655   -0.615381   -1.324309    0.059625    0.003629
13
* Frequency(25) 1298.5779
C     1.621188    0.403598    0.009016   -0.007686   -0.006608   -0.006702
C     1.539018   -0.919147    0.120543    0.009537    0.010751    0.123858
N     0.234586   -1.584887    0.143046   -0.027690    0.001235   -0.019856
C    -1.040982   -0.751715    0.035244    0.005845   -0.009058   -0.125009
N    -0.811196    0.577219   -0.071669   -0.008898    0.001156    0.009971
C     0.423111    1.261638   -0.096194    0.021227    0.002105    0.007410
O    -2.084970   -1.326745    0.055920    0.003921    0.003598    0.018771
O     0.451027    2.464431   -0.197533   -0.003475   -0.001347   -0.001411
H     2.382077   -1.607559    0.201521    0.057555    0.038122   -0.129376
H     0.139969   -2.151905    1.007849    1.467632   -0.107992    0.074572
H    -1.647994    1.161186   -0.147295   -0.029790   -0.025571    0.033937
H     2.590366    0.904195   -0.008805   -0.014383    0.000366   -0.115666
H     0.188398   -2.293879   -0.614969   -1.324309    0.059625    0.003629
