13
* (null), Energy   -1000.0000000
C     1.621188    0.403598    0.009016   -0.005628    0.005966    0.084153
C     1.539018   -0.919147    0.120543    0.004286   -0.001374    0.007438
N     0.234586   -1.584887    0.143046    0.002739    0.000024    0.078275
C    -1.040982   -0.751715    0.035244   -0.007306    0.011021    0.111648
N    -0.811196    0.577219   -0.071669    0.003478   -0.014582   -0.212712
C     0.423111    1.261638   -0.096194    0.000358    0.000467   -0.018764
O    -2.084970   -1.326745    0.055920   -0.000819   -0.006900   -0.063138
O     0.451027    2.464431   -0.197533    0.001221    0.001508   -0.014599
H     2.382077   -1.607559    0.201521    0.023135   -0.034846   -0.471101
H     0.139969   -2.151905    1.007849    0.027912   -0.268431   -0.093805
H    -1.647994    1.161186   -0.147295   -0.038806    0.192839    1.856084
H     2.590366    0.904195   -0.008805    0.002201   -0.021392   -0.253968
H     0.188398   -2.293879   -0.614969   -0.008445    0.228110   -0.133409
13
* Frequency(16)  718.1252
C     1.620549    0.404276    0.018580   -0.005628    0.005966    0.084153
C     1.539505   -0.919303    0.121388    0.004286   -0.001374    0.007438
N     0.234897   -1.584884    0.151942    0.002739    0.000024    0.078275
C    -1.041812   -0.750462    0.047933   -0.007306    0.011021    0.111648
N    -0.810801    0.575562   -0.095842    0.003478   -0.014582   -0.212712
C     0.423152    1.261691   -0.098326    0.000358    0.000467   -0.018764
O    -2.085063   -1.327529    0.048745   -0.000819   -0.006900   -0.063138
O     0.451166    2.464602   -0.199192    0.001221    0.001508   -0.014599
H     2.384706   -1.611519    0.147983    0.023135   -0.034846   -0.471101
H     0.143141   -2.182410    0.997188    0.027912   -0.268431   -0.093805
H    -1.652404    1.183101    0.063639   -0.038806    0.192839    1.856084
H     2.590616    0.901764   -0.037667    0.002201   -0.021392   -0.253968
H     0.187438   -2.267955   -0.630130   -0.008445    0.228110   -0.133409
13
* Frequency(16)  718.1252
C     1.619978    0.404881    0.027107   -0.005628    0.005966    0.084153
C     1.539939   -0.919443    0.122142    0.004286   -0.001374    0.007438
N     0.235175   -1.584882    0.159873    0.002739    0.000024    0.078275
C    -1.042553   -0.749345    0.059246   -0.007306    0.011021    0.111648
N    -0.810449    0.574084   -0.117396    0.003478   -0.014582   -0.212712
C     0.423188    1.261739   -0.100227    0.000358    0.000467   -0.018764
O    -2.085146   -1.328228    0.042347   -0.000819   -0.006900   -0.063138
O     0.451290    2.464755   -0.200671    0.001221    0.001508   -0.014599
H     2.387050   -1.615050    0.100246    0.023135   -0.034846   -0.471101
H     0.145969   -2.209610    0.987683    0.027912   -0.268431   -0.093805
H    -1.656336    1.202642    0.251715   -0.038806    0.192839    1.856084
H     2.590839    0.899596   -0.063401    0.002201   -0.021392   -0.253968
H     0.186582   -2.244841   -0.643648   -0.008445    0.228110   -0.133409
13
* Frequency(16)  718.1252
C     1.619539    0.405346    0.033673   -0.005628    0.005966    0.084153
C     1.540274   -0.919550    0.122722    0.004286   -0.001374    0.007438
N     0.235388   -1.584880    0.165981    0.002739    0.000024    0.078275
C    -1.043123   -0.748485    0.067958   -0.007306    0.011021    0.111648
N    -0.810177    0.572946   -0.133995    0.003478   -0.014582   -0.212712
C     0.423216    1.261775   -0.101692    0.000358    0.000467   -0.018764
O    -2.085210   -1.328766    0.037420   -0.000819   -0.006900   -0.063138
O     0.451385    2.464872   -0.201810    0.001221    0.001508   -0.014599
H     2.388856   -1.617769    0.063484    0.023135   -0.034846   -0.471101
H     0.148148   -2.230557    0.980363    0.027912   -0.268431   -0.093805
H    -1.659365    1.217690    0.396552   -0.038806    0.192839    1.856084
H     2.591011    0.897927   -0.083219    0.002201   -0.021392   -0.253968
H     0.185923   -2.227040   -0.654059   -0.008445    0.228110   -0.133409
13
* Frequency(16)  718.1252
C     1.619279    0.405622    0.037568   -0.005628    0.005966    0.084153
C     1.540472   -0.919614    0.123066    0.004286   -0.001374    0.007438
N     0.235515   -1.584879    0.169604    0.002739    0.000024    0.078275
C    -1.043461   -0.747975    0.073126   -0.007306    0.011021    0.111648
N    -0.810016    0.572271   -0.143840    0.003478   -0.014582   -0.212712
C     0.423232    1.261797   -0.102560    0.000358    0.000467   -0.018764
O    -2.085247   -1.329086    0.034498   -0.000819   -0.006900   -0.063138
O     0.451442    2.464942   -0.202486    0.001221    0.001508   -0.014599
H     2.389927   -1.619382    0.041681    0.023135   -0.034846   -0.471101
H     0.149439   -2.242981    0.976022    0.027912   -0.268431   -0.093805
H    -1.661161    1.226614    0.482455   -0.038806    0.192839    1.856084
H     2.591113    0.896937   -0.094974    0.002201   -0.021392   -0.253968
H     0.185532   -2.216483   -0.660233   -0.008445    0.228110   -0.133409
13
* Frequency(16)  718.1252
C     1.619225    0.405679    0.038369   -0.005628    0.005966    0.084153
C     1.540513   -0.919627    0.123137    0.004286   -0.001374    0.007438
N     0.235541   -1.584879    0.170349    0.002739    0.000024    0.078275
C    -1.043530   -0.747870    0.074188   -0.007306    0.011021    0.111648
N    -0.809983    0.572133   -0.145864    0.003478   -0.014582   -0.212712
C     0.423236    1.261801   -0.102739    0.000358    0.000467   -0.018764
O    -2.085255   -1.329151    0.033898   -0.000819   -0.006900   -0.063138
O     0.451453    2.464957   -0.202625    0.001221    0.001508   -0.014599
H     2.390147   -1.619713    0.037199    0.023135   -0.034846   -0.471101
H     0.149705   -2.245535    0.975129    0.027912   -0.268431   -0.093805
H    -1.661530    1.228449    0.500115   -0.038806    0.192839    1.856084
H     2.591133    0.896733   -0.097390    0.002201   -0.021392   -0.253968
H     0.185452   -2.214313   -0.661502   -0.008445    0.228110   -0.133409
13
* Frequency(16)  718.1252
C     1.619384    0.405510    0.035989   -0.005628    0.005966    0.084153
C     1.540392   -0.919588    0.122927    0.004286   -0.001374    0.007438
N     0.235464   -1.584879    0.168135    0.002739    0.000024    0.078275
C    -1.043324   -0.748182    0.071030   -0.007306    0.011021    0.111648
N    -0.810081    0.572545   -0.139847    0.003478   -0.014582   -0.212712
C     0.423226    1.261788   -0.102208    0.000358    0.000467   -0.018764
O    -2.085232   -1.328956    0.035683   -0.000819   -0.006900   -0.063138
O     0.451419    2.464914   -0.202212    0.001221    0.001508   -0.014599
H     2.389492   -1.618728    0.050523    0.023135   -0.034846   -0.471101
H     0.148915   -2.237942    0.977782    0.027912   -0.268431   -0.093805
H    -1.660432    1.222995    0.447618   -0.038806    0.192839    1.856084
H     2.591071    0.897338   -0.090207    0.002201   -0.021392   -0.253968
H     0.185691   -2.220765   -0.657729   -0.008445    0.228110   -0.133409
13
* Frequency(16)  718.1252
C     1.619739    0.405134    0.030686   -0.005628    0.005966    0.084153
C     1.540122   -0.919501    0.122458    0.004286   -0.001374    0.007438
N     0.235291   -1.584881    0.163202    0.002739    0.000024    0.078275
C    -1.042863   -0.748877    0.063994   -0.007306    0.011021    0.111648
N    -0.810301    0.573464   -0.126443    0.003478   -0.014582   -0.212712
C     0.423203    1.261758   -0.101025    0.000358    0.000467   -0.018764
O    -2.085181   -1.328521    0.039662   -0.000819   -0.006900   -0.063138
O     0.451342    2.464819   -0.201292    0.001221    0.001508   -0.014599
H     2.388034   -1.616532    0.080211    0.023135   -0.034846   -0.471101
H     0.147156   -2.221027    0.983694    0.027912   -0.268431   -0.093805
H    -1.657987    1.210843    0.330652   -0.038806    0.192839    1.856084
H     2.590933    0.898686   -0.074202    0.002201   -0.021392   -0.253968
H     0.186223   -2.235140   -0.649322   -0.008445    0.228110   -0.133409
13
* Frequency(16)  718.1252
C     1.620251    0.404592    0.023034   -0.005628    0.005966    0.084153
C     1.539732   -0.919376    0.121782    0.004286   -0.001374    0.007438
N     0.235042   -1.584883    0.156085    0.002739    0.000024    0.078275
C    -1.042199   -0.749879    0.053843   -0.007306    0.011021    0.111648
N    -0.810617    0.574790   -0.107103    0.003478   -0.014582   -0.212712
C     0.423171    1.261716   -0.099319    0.000358    0.000467   -0.018764
O    -2.085106   -1.327894    0.045403   -0.000819   -0.006900   -0.063138
O     0.451231    2.464682   -0.199965    0.001221    0.001508   -0.014599
H     2.385931   -1.613363    0.123044    0.023135   -0.034846   -0.471101
H     0.144619   -2.196620    0.992223    0.027912   -0.268431   -0.093805
H    -1.654458    1.193310    0.161894   -0.038806    0.192839    1.856084
H     2.590732    0.900631   -0.051111    0.002201   -0.021392   -0.253968
H     0.186991   -2.255880   -0.637192   -0.008445    0.228110   -0.133409
13
* Frequency(16)  718.1252
C     1.620864    0.403942    0.013864   -0.005628    0.005966    0.084153
C     1.539265   -0.919226    0.120971    0.004286   -0.001374    0.007438
N     0.234744   -1.584885    0.147555    0.002739    0.000024    0.078275
C    -1.041403   -0.751080    0.041676   -0.007306    0.011021    0.111648
N    -0.810996    0.576379   -0.083923    0.003478   -0.014582   -0.212712
C     0.423132    1.261665   -0.097275    0.000358    0.000467   -0.018764
O    -2.085017   -1.327142    0.052283   -0.000819   -0.006900   -0.063138
O     0.451098    2.464517   -0.198374    0.001221    0.001508   -0.014599
H     2.383410   -1.609566    0.174381    0.023135   -0.034846   -0.471101
H     0.141577   -2.167368    1.002445    0.027912   -0.268431   -0.093805
H    -1.650230    1.172295   -0.040370   -0.038806    0.192839    1.856084
H     2.590493    0.902962   -0.023435    0.002201   -0.021392   -0.253968
H     0.187911   -2.280738   -0.622654   -0.008445    0.228110   -0.133409
13
* Frequency(16)  718.1252
C     1.621512    0.403254    0.004168   -0.005628    0.005966    0.084153
C     1.538771   -0.919068    0.120114    0.004286   -0.001374    0.007438
N     0.234428   -1.584888    0.138537    0.002739    0.000024    0.078275
C    -1.040561   -0.752350    0.028813   -0.007306    0.011021    0.111648
N    -0.811397    0.578059   -0.059415    0.003478   -0.014582   -0.212712
C     0.423091    1.261611   -0.095113    0.000358    0.000467   -0.018764
O    -2.084923   -1.326347    0.059558   -0.000819   -0.006900   -0.063138
O     0.450957    2.464344   -0.196692    0.001221    0.001508   -0.014599
H     2.380744   -1.605551    0.228660    0.023135   -0.034846   -0.471101
H     0.138361   -2.136441    1.013253    0.027912   -0.268431   -0.093805
H    -1.645759    1.150077   -0.254221   -0.038806    0.192839    1.856084
H     2.590239    0.905427    0.005826    0.002201   -0.021392   -0.253968
H     0.188884   -2.307020   -0.607283   -0.008445    0.228110   -0.133409
13
* Frequency(16)  718.1252
C     1.622126    0.402604   -0.005002   -0.005628    0.005966    0.084153
C     1.538304   -0.918918    0.119304    0.004286   -0.001374    0.007438
N     0.234130   -1.584891    0.130007    0.002739    0.000024    0.078275
C    -1.039765   -0.753551    0.016646   -0.007306    0.011021    0.111648
N    -0.811776    0.579648   -0.036235    0.003478   -0.014582   -0.212712
C     0.423052    1.261560   -0.093068    0.000358    0.000467   -0.018764
O    -2.084833   -1.325595    0.066438   -0.000819   -0.006900   -0.063138
O     0.450824    2.464179   -0.195101    0.001221    0.001508   -0.014599
H     2.378223   -1.601754    0.279997    0.023135   -0.034846   -0.471101
H     0.135319   -2.107189    1.023475    0.027912   -0.268431   -0.093805
H    -1.641530    1.129063   -0.456485   -0.038806    0.192839    1.856084
H     2.589999    0.907758    0.033502    0.002201   -0.021392   -0.253968
H     0.189804   -2.331878   -0.592745   -0.008445    0.228110   -0.133409
13
* Frequency(16)  718.1252
C     1.622637    0.402062   -0.012654   -0.005628    0.005966    0.084153
C     1.537914   -0.918793    0.118627    0.004286   -0.001374    0.007438
N     0.233881   -1.584893    0.122890    0.002739    0.000024    0.078275
C    -1.039101   -0.754553    0.006495   -0.007306    0.011021    0.111648
N    -0.812092    0.580974   -0.016895    0.003478   -0.014582   -0.212712
C     0.423019    1.261518   -0.091362    0.000358    0.000467   -0.018764
O    -2.084759   -1.324968    0.072179   -0.000819   -0.006900   -0.063138
O     0.450713    2.464042   -0.193774    0.001221    0.001508   -0.014599
H     2.376120   -1.598586    0.322831    0.023135   -0.034846   -0.471101
H     0.132781   -2.082783    1.032004    0.027912   -0.268431   -0.093805
H    -1.638001    1.111529   -0.625243   -0.038806    0.192839    1.856084
H     2.589799    0.909703    0.056593    0.002201   -0.021392   -0.253968
H     0.190572   -2.352618   -0.580616   -0.008445    0.228110   -0.133409
13
* Frequency(16)  718.1252
C     1.622992    0.401686   -0.017957   -0.005628    0.005966    0.084153
C     1.537644   -0.918707    0.118159    0.004286   -0.001374    0.007438
N     0.233708   -1.584894    0.117957    0.002739    0.000024    0.078275
C    -1.038640   -0.755247   -0.000541   -0.007306    0.011021    0.111648
N    -0.812311    0.581893   -0.003490    0.003478   -0.014582   -0.212712
C     0.422996    1.261489   -0.090179    0.000358    0.000467   -0.018764
O    -2.084707   -1.324533    0.076157   -0.000819   -0.006900   -0.063138
O     0.450636    2.463947   -0.192854    0.001221    0.001508   -0.014599
H     2.374662   -1.596390    0.352518    0.023135   -0.034846   -0.471101
H     0.131022   -2.065867    1.037915    0.027912   -0.268431   -0.093805
H    -1.635556    1.099377   -0.742209   -0.038806    0.192839    1.856084
H     2.589660    0.911051    0.072597    0.002201   -0.021392   -0.253968
H     0.191104   -2.366993   -0.572209   -0.008445    0.228110   -0.133409
13
* Frequency(16)  718.1252
C     1.623151    0.401517   -0.020337   -0.005628    0.005966    0.084153
C     1.537523   -0.918668    0.117948    0.004286   -0.001374    0.007438
N     0.233631   -1.584895    0.115743    0.002739    0.000024    0.078275
C    -1.038434   -0.755559   -0.003699   -0.007306    0.011021    0.111648
N    -0.812410    0.582305    0.002526    0.003478   -0.014582   -0.212712
C     0.422986    1.261475   -0.089649    0.000358    0.000467   -0.018764
O    -2.084684   -1.324338    0.077943   -0.000819   -0.006900   -0.063138
O     0.450601    2.463905   -0.192441    0.001221    0.001508   -0.014599
H     2.374007   -1.595404    0.365843    0.023135   -0.034846   -0.471101
H     0.130233   -2.058274    1.040568    0.027912   -0.268431   -0.093805
H    -1.634458    1.093923   -0.794706   -0.038806    0.192839    1.856084
H     2.589598    0.911656    0.079781    0.002201   -0.021392   -0.253968
H     0.191343   -2.373444   -0.568435   -0.008445    0.228110   -0.133409
13
* Frequency(16)  718.1252
C     1.623098    0.401574   -0.019536   -0.005628    0.005966    0.084153
C     1.537564   -0.918681    0.118019    0.004286   -0.001374    0.007438
N     0.233657   -1.584895    0.116488    0.002739    0.000024    0.078275
C    -1.038503   -0.755454   -0.002637   -0.007306    0.011021    0.111648
N    -0.812377    0.582167    0.000502    0.003478   -0.014582   -0.212712
C     0.422990    1.261480   -0.089827    0.000358    0.000467   -0.018764
O    -2.084692   -1.324404    0.077342   -0.000819   -0.006900   -0.063138
O     0.450613    2.463919   -0.192580    0.001221    0.001508   -0.014599
H     2.374227   -1.595736    0.361360    0.023135   -0.034846   -0.471101
H     0.130498   -2.060828    1.039676    0.027912   -0.268431   -0.093805
H    -1.634828    1.095758   -0.777046   -0.038806    0.192839    1.856084
H     2.589619    0.911453    0.077364    0.002201   -0.021392   -0.253968
H     0.191263   -2.371274   -0.569705   -0.008445    0.228110   -0.133409
13
* Frequency(16)  718.1252
C     1.622837    0.401850   -0.015641   -0.005628    0.005966    0.084153
C     1.537762   -0.918745    0.118363    0.004286   -0.001374    0.007438
N     0.233783   -1.584894    0.120111    0.002739    0.000024    0.078275
C    -1.038841   -0.754944    0.002531   -0.007306    0.011021    0.111648
N    -0.812216    0.581492   -0.009342    0.003478   -0.014582   -0.212712
C     0.423006    1.261501   -0.090696    0.000358    0.000467   -0.018764
O    -2.084730   -1.324723    0.074420   -0.000819   -0.006900   -0.063138
O     0.450670    2.463989   -0.193255    0.001221    0.001508   -0.014599
H     2.375298   -1.597349    0.339557    0.023135   -0.034846   -0.471101
H     0.131790   -2.073252    1.035334    0.027912   -0.268431   -0.093805
H    -1.636624    1.104683   -0.691143   -0.038806    0.192839    1.856084
H     2.589721    0.910463    0.065610    0.002201   -0.021392   -0.253968
H     0.190872   -2.360717   -0.575879   -0.008445    0.228110   -0.133409
13
* Frequency(16)  718.1252
C     1.622398    0.402316   -0.009075   -0.005628    0.005966    0.084153
C     1.538097   -0.918852    0.118944    0.004286   -0.001374    0.007438
N     0.233997   -1.584892    0.126219    0.002739    0.000024    0.078275
C    -1.039411   -0.754084    0.011243   -0.007306    0.011021    0.111648
N    -0.811944    0.580354   -0.025941    0.003478   -0.014582   -0.212712
C     0.423034    1.261538   -0.092160    0.000358    0.000467   -0.018764
O    -2.084794   -1.325262    0.069493   -0.000819   -0.006900   -0.063138
O     0.450765    2.464106   -0.194394    0.001221    0.001508   -0.014599
H     2.377103   -1.600068    0.302795    0.023135   -0.034846   -0.471101
H     0.133968   -2.094199    1.028014    0.027912   -0.268431   -0.093805
H    -1.639652    1.119731   -0.546306   -0.038806    0.192839    1.856084
H     2.589893    0.908794    0.045792    0.002201   -0.021392   -0.253968
H     0.190213   -2.342916   -0.586289   -0.008445    0.228110   -0.133409
13
* Frequency(16)  718.1252
C     1.621828    0.402920   -0.000547   -0.005628    0.005966    0.084153
C     1.538531   -0.918991    0.119697    0.004286   -0.001374    0.007438
N     0.234275   -1.584889    0.134151    0.002739    0.000024    0.078275
C    -1.040152   -0.752967    0.022556   -0.007306    0.011021    0.111648
N    -0.811592    0.578876   -0.047495    0.003478   -0.014582   -0.212712
C     0.423070    1.261585   -0.094061    0.000358    0.000467   -0.018764
O    -2.084877   -1.325961    0.063096   -0.000819   -0.006900   -0.063138
O     0.450889    2.464259   -0.195874    0.001221    0.001508   -0.014599
H     2.379448   -1.603599    0.255059    0.023135   -0.034846   -0.471101
H     0.136797   -2.121399    1.018509    0.027912   -0.268431   -0.093805
H    -1.643584    1.139271   -0.358230   -0.038806    0.192839    1.856084
H     2.590116    0.906626    0.020058    0.002201   -0.021392   -0.253968
H     0.189357   -2.319802   -0.599808   -0.008445    0.228110   -0.133409
13
* Frequency(16)  718.1252
C     1.621188    0.403598    0.009016   -0.005628    0.005966    0.084153
C     1.539018   -0.919147    0.120543    0.004286   -0.001374    0.007438
N     0.234586   -1.584887    0.143046    0.002739    0.000024    0.078275
C    -1.040982   -0.751715    0.035244   -0.007306    0.011021    0.111648
N    -0.811196    0.577219   -0.071669    0.003478   -0.014582   -0.212712
C     0.423111    1.261638   -0.096194    0.000358    0.000467   -0.018764
O    -2.084970   -1.326745    0.055920   -0.000819   -0.006900   -0.063138
O     0.451027    2.464431   -0.197533    0.001221    0.001508   -0.014599
H     2.382077   -1.607559    0.201521    0.023135   -0.034846   -0.471101
H     0.139969   -2.151905    1.007849    0.027912   -0.268431   -0.093805
H    -1.647994    1.161186   -0.147295   -0.038806    0.192839    1.856084
H     2.590366    0.904195   -0.008805    0.002201   -0.021392   -0.253968
H     0.188398   -2.293879   -0.614969   -0.008445    0.228110   -0.133409
