13
* (null), Energy   -1000.0000000
C     1.621188    0.403598    0.009016    0.004580    0.004779   -0.000361
C     1.539018   -0.919147    0.120543   -0.004551   -0.000802    0.000886
N     0.234586   -1.584887    0.143046   -0.013134   -0.122226   -0.014695
C    -1.040982   -0.751715    0.035244    0.007351   -0.001232    0.001226
N    -0.811196    0.577219   -0.071669    0.000644    0.000747   -0.000179
C     0.423111    1.261638   -0.096194    0.000362   -0.002400    0.000180
O    -2.084970   -1.326745    0.055920   -0.002517   -0.000338   -0.000004
O     0.451027    2.464431   -0.197533   -0.000046    0.001201   -0.000240
H     2.382077   -1.607559    0.201521    0.005935   -0.003702    0.000992
H     0.139969   -2.151905    1.007849    0.108722    0.608746   -1.011280
H    -1.647994    1.161186   -0.147295   -0.021972    0.019938   -0.002874
H     2.590366    0.904195   -0.008805   -0.040412   -0.017734   -0.000010
H     0.188398   -2.293879   -0.614969    0.069739    1.063001    1.200722
13
* Frequency(36) 3324.3573
C     1.621709    0.404141    0.008975    0.004580    0.004779   -0.000361
C     1.538501   -0.919238    0.120643   -0.004551   -0.000802    0.000886
N     0.233093   -1.598777    0.141376   -0.013134   -0.122226   -0.014695
C    -1.040147   -0.751855    0.035384    0.007351   -0.001232    0.001226
N    -0.811123    0.577304   -0.071689    0.000644    0.000747   -0.000179
C     0.423152    1.261365   -0.096173    0.000362   -0.002400    0.000180
O    -2.085256   -1.326783    0.055920   -0.002517   -0.000338   -0.000004
O     0.451022    2.464567   -0.197560   -0.000046    0.001201   -0.000240
H     2.382751   -1.607980    0.201633    0.005935   -0.003702    0.000992
H     0.152325   -2.082724    0.892922    0.108722    0.608746   -1.011280
H    -1.650491    1.163452   -0.147622   -0.021972    0.019938   -0.002874
H     2.585773    0.902179   -0.008806   -0.040412   -0.017734   -0.000010
H     0.196323   -2.173074   -0.478513    0.069739    1.063001    1.200722
13
* Frequency(36) 3324.3573
C     1.622173    0.404626    0.008938    0.004580    0.004779   -0.000361
C     1.538040   -0.919320    0.120733   -0.004551   -0.000802    0.000886
N     0.231762   -1.611162    0.139887   -0.013134   -0.122226   -0.014695
C    -1.039402   -0.751979    0.035508    0.007351   -0.001232    0.001226
N    -0.811058    0.577380   -0.071707    0.000644    0.000747   -0.000179
C     0.423189    1.261122   -0.096155    0.000362   -0.002400    0.000180
O    -2.085511   -1.326817    0.055919   -0.002517   -0.000338   -0.000004
O     0.451017    2.464689   -0.197584   -0.000046    0.001201   -0.000240
H     2.383353   -1.608355    0.201734    0.005935   -0.003702    0.000992
H     0.163341   -2.021040    0.790449    0.108722    0.608746   -1.011280
H    -1.652718    1.165472   -0.147913   -0.021972    0.019938   -0.002874
H     2.581678    0.900382   -0.008807   -0.040412   -0.017734   -0.000010
H     0.203390   -2.065361   -0.356844    0.069739    1.063001    1.200722
13
* Frequency(36) 3324.3573
C     1.622530    0.404998    0.008910    0.004580    0.004779   -0.000361
C     1.537685   -0.919382    0.120802   -0.004551   -0.000802    0.000886
N     0.230737   -1.620700    0.138740   -0.013134   -0.122226   -0.014695
C    -1.038828   -0.752076    0.035604    0.007351   -0.001232    0.001226
N    -0.811008    0.577438   -0.071721    0.000644    0.000747   -0.000179
C     0.423217    1.260935   -0.096141    0.000362   -0.002400    0.000180
O    -2.085707   -1.326844    0.055919   -0.002517   -0.000338   -0.000004
O     0.451014    2.464782   -0.197603   -0.000046    0.001201   -0.000240
H     2.383816   -1.608644    0.201811    0.005935   -0.003702    0.000992
H     0.171825   -1.973537    0.711535    0.108722    0.608746   -1.011280
H    -1.654432    1.167028   -0.148138   -0.021972    0.019938   -0.002874
H     2.578525    0.898999   -0.008807   -0.040412   -0.017734   -0.000010
H     0.208832   -1.982411   -0.263147    0.069739    1.063001    1.200722
13
* Frequency(36) 3324.3573
C     1.622742    0.405220    0.008893    0.004580    0.004779   -0.000361
C     1.537474   -0.919419    0.120843   -0.004551   -0.000802    0.000886
N     0.230130   -1.626357    0.138060   -0.013134   -0.122226   -0.014695
C    -1.038488   -0.752133    0.035660    0.007351   -0.001232    0.001226
N    -0.810978    0.577473   -0.071730    0.000644    0.000747   -0.000179
C     0.423234    1.260824   -0.096132    0.000362   -0.002400    0.000180
O    -2.085824   -1.326859    0.055919   -0.002517   -0.000338   -0.000004
O     0.451012    2.464838   -0.197614   -0.000046    0.001201   -0.000240
H     2.384091   -1.608815    0.201857    0.005935   -0.003702    0.000992
H     0.176857   -1.945363    0.664732    0.108722    0.608746   -1.011280
H    -1.655449    1.167951   -0.148271   -0.021972    0.019938   -0.002874
H     2.576654    0.898178   -0.008808   -0.040412   -0.017734   -0.000010
H     0.212059   -1.933213   -0.207576    0.069739    1.063001    1.200722
13
* Frequency(36) 3324.3573
C     1.622786    0.405265    0.008890    0.004580    0.004779   -0.000361
C     1.537431   -0.919427    0.120852   -0.004551   -0.000802    0.000886
N     0.230005   -1.627520    0.137920   -0.013134   -0.122226   -0.014695
C    -1.038418   -0.752144    0.035672    0.007351   -0.001232    0.001226
N    -0.810972    0.577480   -0.071731    0.000644    0.000747   -0.000179
C     0.423237    1.260801   -0.096131    0.000362   -0.002400    0.000180
O    -2.085848   -1.326863    0.055919   -0.002517   -0.000338   -0.000004
O     0.451011    2.464849   -0.197616   -0.000046    0.001201   -0.000240
H     2.384147   -1.608850    0.201867    0.005935   -0.003702    0.000992
H     0.177892   -1.939571    0.655110    0.108722    0.608746   -1.011280
H    -1.655658    1.168141   -0.148298   -0.021972    0.019938   -0.002874
H     2.576270    0.898009   -0.008808   -0.040412   -0.017734   -0.000010
H     0.212723   -1.923099   -0.196151    0.069739    1.063001    1.200722
13
* Frequency(36) 3324.3573
C     1.622656    0.405130    0.008900    0.004580    0.004779   -0.000361
C     1.537559   -0.919404    0.120827   -0.004551   -0.000802    0.000886
N     0.230376   -1.624063    0.138336   -0.013134   -0.122226   -0.014695
C    -1.038626   -0.752109    0.035637    0.007351   -0.001232    0.001226
N    -0.810990    0.577459   -0.071726    0.000644    0.000747   -0.000179
C     0.423227    1.260869   -0.096136    0.000362   -0.002400    0.000180
O    -2.085777   -1.326853    0.055919   -0.002517   -0.000338   -0.000004
O     0.451013    2.464815   -0.197610   -0.000046    0.001201   -0.000240
H     2.383979   -1.608745    0.201839    0.005935   -0.003702    0.000992
H     0.174817   -1.956789    0.683713    0.108722    0.608746   -1.011280
H    -1.655037    1.167577   -0.148217   -0.021972    0.019938   -0.002874
H     2.577413    0.898511   -0.008808   -0.040412   -0.017734   -0.000010
H     0.210751   -1.953165   -0.230113    0.069739    1.063001    1.200722
13
* Frequency(36) 3324.3573
C     1.622367    0.404829    0.008923    0.004580    0.004779   -0.000361
C     1.537846   -0.919354    0.120771   -0.004551   -0.000802    0.000886
N     0.231204   -1.616360    0.139262   -0.013134   -0.122226   -0.014695
C    -1.039089   -0.752032    0.035560    0.007351   -0.001232    0.001226
N    -0.811031    0.577411   -0.071715    0.000644    0.000747   -0.000179
C     0.423204    1.261020   -0.096147    0.000362   -0.002400    0.000180
O    -2.085618   -1.326832    0.055919   -0.002517   -0.000338   -0.000004
O     0.451015    2.464740   -0.197595   -0.000046    0.001201   -0.000240
H     2.383605   -1.608512    0.201776    0.005935   -0.003702    0.000992
H     0.167965   -1.995150    0.747441    0.108722    0.608746   -1.011280
H    -1.653652    1.166320   -0.148036   -0.021972    0.019938   -0.002874
H     2.579960    0.899628   -0.008807   -0.040412   -0.017734   -0.000010
H     0.206356   -2.020152   -0.305779    0.069739    1.063001    1.200722
13
* Frequency(36) 3324.3573
C     1.621951    0.404394    0.008956    0.004580    0.004779   -0.000361
C     1.538260   -0.919281    0.120690   -0.004551   -0.000802    0.000886
N     0.232398   -1.605247    0.140598   -0.013134   -0.122226   -0.014695
C    -1.039757   -0.751920    0.035449    0.007351   -0.001232    0.001226
N    -0.811089    0.577344   -0.071699    0.000644    0.000747   -0.000179
C     0.423171    1.261238   -0.096164    0.000362   -0.002400    0.000180
O    -2.085389   -1.326801    0.055920   -0.002517   -0.000338   -0.000004
O     0.451020    2.464631   -0.197573   -0.000046    0.001201   -0.000240
H     2.383066   -1.608176    0.201686    0.005935   -0.003702    0.000992
H     0.158080   -2.050499    0.839388    0.108722    0.608746   -1.011280
H    -1.651654    1.164507   -0.147774   -0.021972    0.019938   -0.002874
H     2.583634    0.901241   -0.008806   -0.040412   -0.017734   -0.000010
H     0.200015   -2.116802   -0.414951    0.069739    1.063001    1.200722
13
* Frequency(36) 3324.3573
C     1.621452    0.403873    0.008995    0.004580    0.004779   -0.000361
C     1.538756   -0.919193    0.120594   -0.004551   -0.000802    0.000886
N     0.233829   -1.591928    0.142200   -0.013134   -0.122226   -0.014695
C    -1.040558   -0.751786    0.035315    0.007351   -0.001232    0.001226
N    -0.811159    0.577262   -0.071679    0.000644    0.000747   -0.000179
C     0.423132    1.261500   -0.096183    0.000362   -0.002400    0.000180
O    -2.085115   -1.326764    0.055920   -0.002517   -0.000338   -0.000004
O     0.451025    2.464500   -0.197547   -0.000046    0.001201   -0.000240
H     2.382419   -1.607772    0.201578    0.005935   -0.003702    0.000992
H     0.146232   -2.116836    0.949591    0.108722    0.608746   -1.011280
H    -1.649260    1.162335   -0.147461   -0.021972    0.019938   -0.002874
H     2.588038    0.903173   -0.008805   -0.040412   -0.017734   -0.000010
H     0.192415   -2.232641   -0.545797    0.069739    1.063001    1.200722
13
* Frequency(36) 3324.3573
C     1.620924    0.403323    0.009037    0.004580    0.004779   -0.000361
C     1.539280   -0.919101    0.120492   -0.004551   -0.000802    0.000886
N     0.235343   -1.577846    0.143893   -0.013134   -0.122226   -0.014695
C    -1.041405   -0.751644    0.035174    0.007351   -0.001232    0.001226
N    -0.811233    0.577176   -0.071658    0.000644    0.000747   -0.000179
C     0.423090    1.261777   -0.096204    0.000362   -0.002400    0.000180
O    -2.084825   -1.326725    0.055921   -0.002517   -0.000338   -0.000004
O     0.451030    2.464361   -0.197519   -0.000046    0.001201   -0.000240
H     2.381735   -1.607345    0.201464    0.005935   -0.003702    0.000992
H     0.133706   -2.186973    1.066107    0.108722    0.608746   -1.011280
H    -1.646728    1.160037   -0.147130   -0.021972    0.019938   -0.002874
H     2.592694    0.905216   -0.008804   -0.040412   -0.017734   -0.000010
H     0.184380   -2.355116   -0.684140    0.069739    1.063001    1.200722
13
* Frequency(36) 3324.3573
C     1.620425    0.402802    0.009076    0.004580    0.004779   -0.000361
C     1.539776   -0.919014    0.120395   -0.004551   -0.000802    0.000886
N     0.236774   -1.564526    0.145494   -0.013134   -0.122226   -0.014695
C    -1.042206   -0.751509    0.035040    0.007351   -0.001232    0.001226
N    -0.811304    0.577095   -0.071639    0.000644    0.000747   -0.000179
C     0.423051    1.262038   -0.096224    0.000362   -0.002400    0.000180
O    -2.084550   -1.326689    0.055921   -0.002517   -0.000338   -0.000004
O     0.451035    2.464231   -0.197493   -0.000046    0.001201   -0.000240
H     2.381088   -1.606942    0.201355    0.005935   -0.003702    0.000992
H     0.121858   -2.253310    1.176309    0.108722    0.608746   -1.011280
H    -1.644334    1.157865   -0.146817   -0.021972    0.019938   -0.002874
H     2.597098    0.907149   -0.008803   -0.040412   -0.017734   -0.000010
H     0.176780   -2.470955   -0.814987    0.069739    1.063001    1.200722
13
* Frequency(36) 3324.3573
C     1.620009    0.402368    0.009109    0.004580    0.004779   -0.000361
C     1.540190   -0.918941    0.120314   -0.004551   -0.000802    0.000886
N     0.237968   -1.553413    0.146830   -0.013134   -0.122226   -0.014695
C    -1.042875   -0.751397    0.034929    0.007351   -0.001232    0.001226
N    -0.811362    0.577027   -0.071623    0.000644    0.000747   -0.000179
C     0.423018    1.262256   -0.096240    0.000362   -0.002400    0.000180
O    -2.084322   -1.326658    0.055921   -0.002517   -0.000338   -0.000004
O     0.451039    2.464121   -0.197471   -0.000046    0.001201   -0.000240
H     2.380549   -1.606605    0.201265    0.005935   -0.003702    0.000992
H     0.111973   -2.308659    1.268257    0.108722    0.608746   -1.011280
H    -1.642336    1.156052   -0.146555   -0.021972    0.019938   -0.002874
H     2.600772    0.908761   -0.008802   -0.040412   -0.017734   -0.000010
H     0.170440   -2.567605   -0.924159    0.069739    1.063001    1.200722
13
* Frequency(36) 3324.3573
C     1.619720    0.402066    0.009132    0.004580    0.004779   -0.000361
C     1.540476   -0.918890    0.120259   -0.004551   -0.000802    0.000886
N     0.238796   -1.545711    0.147756   -0.013134   -0.122226   -0.014695
C    -1.043338   -0.751320    0.034852    0.007351   -0.001232    0.001226
N    -0.811403    0.576979   -0.071611    0.000644    0.000747   -0.000179
C     0.422995    1.262408   -0.096251    0.000362   -0.002400    0.000180
O    -2.084163   -1.326637    0.055922   -0.002517   -0.000338   -0.000004
O     0.451042    2.464046   -0.197456   -0.000046    0.001201   -0.000240
H     2.380175   -1.606372    0.201203    0.005935   -0.003702    0.000992
H     0.105121   -2.347020    1.331985    0.108722    0.608746   -1.011280
H    -1.640952    1.154795   -0.146374   -0.021972    0.019938   -0.002874
H     2.603319    0.909879   -0.008802   -0.040412   -0.017734   -0.000010
H     0.166045   -2.634592   -0.999825    0.069739    1.063001    1.200722
13
* Frequency(36) 3324.3573
C     1.619591    0.401931    0.009142    0.004580    0.004779   -0.000361
C     1.540605   -0.918867    0.120234   -0.004551   -0.000802    0.000886
N     0.239167   -1.542254    0.148172   -0.013134   -0.122226   -0.014695
C    -1.043546   -0.751285    0.034817    0.007351   -0.001232    0.001226
N    -0.811421    0.576958   -0.071606    0.000644    0.000747   -0.000179
C     0.422985    1.262476   -0.096256    0.000362   -0.002400    0.000180
O    -2.084092   -1.326627    0.055922   -0.002517   -0.000338   -0.000004
O     0.451044    2.464012   -0.197449   -0.000046    0.001201   -0.000240
H     2.380007   -1.606267    0.201175    0.005935   -0.003702    0.000992
H     0.102046   -2.364238    1.360588    0.108722    0.608746   -1.011280
H    -1.640330    1.154232   -0.146293   -0.021972    0.019938   -0.002874
H     2.604462    0.910381   -0.008801   -0.040412   -0.017734   -0.000010
H     0.164072   -2.664658   -1.033786    0.069739    1.063001    1.200722
13
* Frequency(36) 3324.3573
C     1.619634    0.401977    0.009139    0.004580    0.004779   -0.000361
C     1.540562   -0.918875    0.120242   -0.004551   -0.000802    0.000886
N     0.239042   -1.543417    0.148032   -0.013134   -0.122226   -0.014695
C    -1.043476   -0.751297    0.034829    0.007351   -0.001232    0.001226
N    -0.811415    0.576965   -0.071608    0.000644    0.000747   -0.000179
C     0.422988    1.262453   -0.096255    0.000362   -0.002400    0.000180
O    -2.084116   -1.326630    0.055922   -0.002517   -0.000338   -0.000004
O     0.451043    2.464023   -0.197451   -0.000046    0.001201   -0.000240
H     2.380063   -1.606303    0.201184    0.005935   -0.003702    0.000992
H     0.103081   -2.358446    1.350966    0.108722    0.608746   -1.011280
H    -1.640539    1.154421   -0.146320   -0.021972    0.019938   -0.002874
H     2.604077    0.910212   -0.008801   -0.040412   -0.017734   -0.000010
H     0.164736   -2.654544   -1.022362    0.069739    1.063001    1.200722
13
* Frequency(36) 3324.3573
C     1.619846    0.402198    0.009122    0.004580    0.004779   -0.000361
C     1.540351   -0.918912    0.120283   -0.004551   -0.000802    0.000886
N     0.238434   -1.549073    0.147352   -0.013134   -0.122226   -0.014695
C    -1.043136   -0.751354    0.034885    0.007351   -0.001232    0.001226
N    -0.811385    0.577000   -0.071616    0.000644    0.000747   -0.000179
C     0.423005    1.262342   -0.096246    0.000362   -0.002400    0.000180
O    -2.084232   -1.326646    0.055922   -0.002517   -0.000338   -0.000004
O     0.451041    2.464079   -0.197463   -0.000046    0.001201   -0.000240
H     2.380338   -1.606474    0.201230    0.005935   -0.003702    0.000992
H     0.108112   -2.330272    1.304162    0.108722    0.608746   -1.011280
H    -1.641556    1.155344   -0.146453   -0.021972    0.019938   -0.002874
H     2.602207    0.909391   -0.008802   -0.040412   -0.017734   -0.000010
H     0.167963   -2.605347   -0.966790    0.069739    1.063001    1.200722
13
* Frequency(36) 3324.3573
C     1.620204    0.402571    0.009094    0.004580    0.004779   -0.000361
C     1.539996   -0.918975    0.120352   -0.004551   -0.000802    0.000886
N     0.237409   -1.558611    0.146205   -0.013134   -0.122226   -0.014695
C    -1.042562   -0.751450    0.034981    0.007351   -0.001232    0.001226
N    -0.811335    0.577058   -0.071630    0.000644    0.000747   -0.000179
C     0.423033    1.262154   -0.096232    0.000362   -0.002400    0.000180
O    -2.084429   -1.326672    0.055921   -0.002517   -0.000338   -0.000004
O     0.451037    2.464173   -0.197481   -0.000046    0.001201   -0.000240
H     2.380801   -1.606763    0.201307    0.005935   -0.003702    0.000992
H     0.116596   -2.282769    1.225248    0.108722    0.608746   -1.011280
H    -1.643271    1.156900   -0.146678   -0.021972    0.019938   -0.002874
H     2.599053    0.908007   -0.008803   -0.040412   -0.017734   -0.000010
H     0.173405   -2.522397   -0.873093    0.069739    1.063001    1.200722
13
* Frequency(36) 3324.3573
C     1.620668    0.403055    0.009057    0.004580    0.004779   -0.000361
C     1.539535   -0.919056    0.120442   -0.004551   -0.000802    0.000886
N     0.236079   -1.570996    0.144716   -0.013134   -0.122226   -0.014695
C    -1.041817   -0.751575    0.035105    0.007351   -0.001232    0.001226
N    -0.811269    0.577134   -0.071648    0.000644    0.000747   -0.000179
C     0.423070    1.261911   -0.096214    0.000362   -0.002400    0.000180
O    -2.084684   -1.326706    0.055921   -0.002517   -0.000338   -0.000004
O     0.451033    2.464294   -0.197506   -0.000046    0.001201   -0.000240
H     2.381403   -1.607138    0.201408    0.005935   -0.003702    0.000992
H     0.127613   -2.221085    1.122775    0.108722    0.608746   -1.011280
H    -1.645497    1.158920   -0.146969   -0.021972    0.019938   -0.002874
H     2.594958    0.906210   -0.008804   -0.040412   -0.017734   -0.000010
H     0.180472   -2.414683   -0.751425    0.069739    1.063001    1.200722
13
* Frequency(36) 3324.3573
C     1.621188    0.403598    0.009016    0.004580    0.004779   -0.000361
C     1.539018   -0.919147    0.120543   -0.004551   -0.000802    0.000886
N     0.234586   -1.584887    0.143046   -0.013134   -0.122226   -0.014695
C    -1.040982   -0.751715    0.035244    0.007351   -0.001232    0.001226
N    -0.811196    0.577219   -0.071669    0.000644    0.000747   -0.000179
C     0.423111    1.261638   -0.096194    0.000362   -0.002400    0.000180
O    -2.084970   -1.326745    0.055920   -0.002517   -0.000338   -0.000004
O     0.451027    2.464431   -0.197533   -0.000046    0.001201   -0.000240
H     2.382077   -1.607559    0.201521    0.005935   -0.003702    0.000992
H     0.139969   -2.151905    1.007849    0.108722    0.608746   -1.011280
H    -1.647994    1.161186   -0.147295   -0.021972    0.019938   -0.002874
H     2.590366    0.904195   -0.008805   -0.040412   -0.017734   -0.000010
H     0.188398   -2.293879   -0.614969    0.069739    1.063001    1.200722
