13
* (null), Energy   -1000.0000000
C     1.621188    0.403598    0.009016    0.000558    0.000700    0.000661
C     1.539018   -0.919147    0.120543   -0.000526   -0.000417   -0.002070
N     0.234586   -1.584887    0.143046   -0.006835   -0.004608    0.159849
C    -1.040982   -0.751715    0.035244    0.000834   -0.000722   -0.001343
N    -0.811196    0.577219   -0.071669    0.000128    0.000164    0.000349
C     0.423111    1.261638   -0.096194    0.000081   -0.000346   -0.000160
O    -2.084970   -1.326745    0.055920   -0.000286   -0.000021   -0.000275
O     0.451027    2.464431   -0.197533    0.000028    0.000164    0.000075
H     2.382077   -1.607559    0.201521    0.000456   -0.000454   -0.002333
H     0.139969   -2.151905    1.007849    0.148059    0.877862   -1.342095
H    -1.647994    1.161186   -0.147295   -0.003543    0.003307    0.002255
H     2.590366    0.904195   -0.008805   -0.004815   -0.001771    0.003240
H     0.188398   -2.293879   -0.614969   -0.054136   -0.810125   -0.849284
13
* Frequency(37) 3347.5500
C     1.621252    0.403678    0.009091    0.000558    0.000700    0.000661
C     1.538958   -0.919195    0.120307   -0.000526   -0.000417   -0.002070
N     0.233809   -1.585410    0.161212   -0.006835   -0.004608    0.159849
C    -1.040887   -0.751797    0.035092    0.000834   -0.000722   -0.001343
N    -0.811182    0.577238   -0.071629    0.000128    0.000164    0.000349
C     0.423120    1.261599   -0.096212    0.000081   -0.000346   -0.000160
O    -2.085002   -1.326747    0.055889   -0.000286   -0.000021   -0.000275
O     0.451031    2.464449   -0.197524    0.000028    0.000164    0.000075
H     2.382129   -1.607610    0.201256    0.000456   -0.000454   -0.002333
H     0.156795   -2.052140    0.855327    0.148059    0.877862   -1.342095
H    -1.648397    1.161562   -0.147039   -0.003543    0.003307    0.002255
H     2.589819    0.903994   -0.008436   -0.004815   -0.001771    0.003240
H     0.182245   -2.385945   -0.711485   -0.054136   -0.810125   -0.849284
13
* Frequency(37) 3347.5500
C     1.621308    0.403749    0.009158    0.000558    0.000700    0.000661
C     1.538905   -0.919237    0.120098   -0.000526   -0.000417   -0.002070
N     0.233117   -1.585877    0.177409   -0.006835   -0.004608    0.159849
C    -1.040803   -0.751870    0.034956    0.000834   -0.000722   -0.001343
N    -0.811169    0.577254   -0.071594    0.000128    0.000164    0.000349
C     0.423128    1.261564   -0.096228    0.000081   -0.000346   -0.000160
O    -2.085031   -1.326749    0.055861   -0.000286   -0.000021   -0.000275
O     0.451033    2.464466   -0.197517    0.000028    0.000164    0.000075
H     2.382175   -1.607656    0.201019    0.000456   -0.000454   -0.002333
H     0.171798   -1.963187    0.719333    0.148059    0.877862   -1.342095
H    -1.648756    1.161897   -0.146811   -0.003543    0.003307    0.002255
H     2.589331    0.903814   -0.008108   -0.004815   -0.001771    0.003240
H     0.176760   -2.468035   -0.797543   -0.054136   -0.810125   -0.849284
13
* Frequency(37) 3347.5500
C     1.621352    0.403803    0.009210    0.000558    0.000700    0.000661
C     1.538864   -0.919269    0.119936   -0.000526   -0.000417   -0.002070
N     0.232583   -1.586237    0.189883   -0.006835   -0.004608    0.159849
C    -1.040738   -0.751926    0.034851    0.000834   -0.000722   -0.001343
N    -0.811159    0.577267   -0.071567    0.000128    0.000164    0.000349
C     0.423135    1.261537   -0.096240    0.000081   -0.000346   -0.000160
O    -2.085054   -1.326751    0.055840   -0.000286   -0.000021   -0.000275
O     0.451036    2.464479   -0.197511    0.000028    0.000164    0.000075
H     2.382211   -1.607692    0.200837    0.000456   -0.000454   -0.002333
H     0.183351   -1.894684    0.614604    0.148059    0.877862   -1.342095
H    -1.649032    1.162155   -0.146635   -0.003543    0.003307    0.002255
H     2.588955    0.903676   -0.007855   -0.004815   -0.001771    0.003240
H     0.172535   -2.531252   -0.863816   -0.054136   -0.810125   -0.849284
13
* Frequency(37) 3347.5500
C     1.621377    0.403836    0.009240    0.000558    0.000700    0.000661
C     1.538839   -0.919289    0.119840   -0.000526   -0.000417   -0.002070
N     0.232267   -1.586450    0.197281   -0.006835   -0.004608    0.159849
C    -1.040699   -0.751960    0.034789    0.000834   -0.000722   -0.001343
N    -0.811153    0.577275   -0.071550    0.000128    0.000164    0.000349
C     0.423139    1.261521   -0.096248    0.000081   -0.000346   -0.000160
O    -2.085067   -1.326752    0.055827   -0.000286   -0.000021   -0.000275
O     0.451037    2.464486   -0.197507    0.000028    0.000164    0.000075
H     2.382232   -1.607713    0.200729    0.000456   -0.000454   -0.002333
H     0.190204   -1.854055    0.552489    0.148059    0.877862   -1.342095
H    -1.649196    1.162308   -0.146530   -0.003543    0.003307    0.002255
H     2.588732    0.903594   -0.007705   -0.004815   -0.001771    0.003240
H     0.170030   -2.568746   -0.903122   -0.054136   -0.810125   -0.849284
13
* Frequency(37) 3347.5500
C     1.621383    0.403842    0.009247    0.000558    0.000700    0.000661
C     1.538834   -0.919293    0.119821   -0.000526   -0.000417   -0.002070
N     0.232202   -1.586494    0.198802   -0.006835   -0.004608    0.159849
C    -1.040691   -0.751966    0.034776    0.000834   -0.000722   -0.001343
N    -0.811152    0.577276   -0.071547    0.000128    0.000164    0.000349
C     0.423139    1.261518   -0.096249    0.000081   -0.000346   -0.000160
O    -2.085070   -1.326752    0.055825   -0.000286   -0.000021   -0.000275
O     0.451037    2.464488   -0.197507    0.000028    0.000164    0.000075
H     2.382236   -1.607717    0.200707    0.000456   -0.000454   -0.002333
H     0.191613   -1.845702    0.539720    0.148059    0.877862   -1.342095
H    -1.649230    1.162340   -0.146509   -0.003543    0.003307    0.002255
H     2.588686    0.903577   -0.007674   -0.004815   -0.001771    0.003240
H     0.169515   -2.576454   -0.911203   -0.054136   -0.810125   -0.849284
13
* Frequency(37) 3347.5500
C     1.621367    0.403823    0.009228    0.000558    0.000700    0.000661
C     1.538849   -0.919281    0.119879   -0.000526   -0.000417   -0.002070
N     0.232395   -1.586364    0.194281   -0.006835   -0.004608    0.159849
C    -1.040715   -0.751946    0.034814    0.000834   -0.000722   -0.001343
N    -0.811155    0.577272   -0.071557    0.000128    0.000164    0.000349
C     0.423137    1.261527   -0.096245    0.000081   -0.000346   -0.000160
O    -2.085061   -1.326752    0.055832   -0.000286   -0.000021   -0.000275
O     0.451036    2.464483   -0.197509    0.000028    0.000164    0.000075
H     2.382223   -1.607704    0.200773    0.000456   -0.000454   -0.002333
H     0.187425   -1.870532    0.577679    0.148059    0.877862   -1.342095
H    -1.649130    1.162246   -0.146573   -0.003543    0.003307    0.002255
H     2.588823    0.903627   -0.007766   -0.004815   -0.001771    0.003240
H     0.171046   -2.553541   -0.887182   -0.054136   -0.810125   -0.849284
13
* Frequency(37) 3347.5500
C     1.621332    0.403778    0.009186    0.000558    0.000700    0.000661
C     1.538882   -0.919255    0.120010   -0.000526   -0.000417   -0.002070
N     0.232826   -1.586073    0.184208   -0.006835   -0.004608    0.159849
C    -1.040767   -0.751900    0.034899    0.000834   -0.000722   -0.001343
N    -0.811163    0.577261   -0.071579    0.000128    0.000164    0.000349
C     0.423132    1.261549   -0.096235    0.000081   -0.000346   -0.000160
O    -2.085043   -1.326750    0.055850   -0.000286   -0.000021   -0.000275
O     0.451035    2.464473   -0.197514    0.000028    0.000164    0.000075
H     2.382195   -1.607676    0.200920    0.000456   -0.000454   -0.002333
H     0.178095   -1.925852    0.662255    0.148059    0.877862   -1.342095
H    -1.648906    1.162038   -0.146715   -0.003543    0.003307    0.002255
H     2.589126    0.903739   -0.007970   -0.004815   -0.001771    0.003240
H     0.174458   -2.502489   -0.833662   -0.054136   -0.810125   -0.849284
13
* Frequency(37) 3347.5500
C     1.621281    0.403715    0.009126    0.000558    0.000700    0.000661
C     1.538930   -0.919217    0.120198   -0.000526   -0.000417   -0.002070
N     0.233447   -1.585654    0.169674   -0.006835   -0.004608    0.159849
C    -1.040843   -0.751835    0.035021    0.000834   -0.000722   -0.001343
N    -0.811175    0.577246   -0.071611    0.000128    0.000164    0.000349
C     0.423125    1.261581   -0.096220    0.000081   -0.000346   -0.000160
O    -2.085017   -1.326748    0.055875   -0.000286   -0.000021   -0.000275
O     0.451032    2.464458   -0.197520    0.000028    0.000164    0.000075
H     2.382153   -1.607634    0.201132    0.000456   -0.000454   -0.002333
H     0.164633   -2.005669    0.784280    0.148059    0.877862   -1.342095
H    -1.648584    1.161737   -0.146920   -0.003543    0.003307    0.002255
H     2.589564    0.903900   -0.008265   -0.004815   -0.001771    0.003240
H     0.179380   -2.428831   -0.756444   -0.054136   -0.810125   -0.849284
13
* Frequency(37) 3347.5500
C     1.621220    0.403638    0.009054    0.000558    0.000700    0.000661
C     1.538988   -0.919171    0.120423   -0.000526   -0.000417   -0.002070
N     0.234192   -1.585152    0.152255   -0.006835   -0.004608    0.159849
C    -1.040934   -0.751756    0.035167    0.000834   -0.000722   -0.001343
N    -0.811189    0.577228   -0.071649    0.000128    0.000164    0.000349
C     0.423116    1.261618   -0.096203    0.000081   -0.000346   -0.000160
O    -2.084986   -1.326746    0.055905   -0.000286   -0.000021   -0.000275
O     0.451029    2.464440   -0.197529    0.000028    0.000164    0.000075
H     2.382103   -1.607585    0.201386    0.000456   -0.000454   -0.002333
H     0.148498   -2.101333    0.930533    0.148059    0.877862   -1.342095
H    -1.648198    1.161377   -0.147166   -0.003543    0.003307    0.002255
H     2.590088    0.904093   -0.008618   -0.004815   -0.001771    0.003240
H     0.185279   -2.340548   -0.663894   -0.054136   -0.810125   -0.849284
13
* Frequency(37) 3347.5500
C     1.621156    0.403558    0.008978    0.000558    0.000700    0.000661
C     1.539048   -0.919123    0.120662   -0.000526   -0.000417   -0.002070
N     0.234980   -1.584621    0.133838   -0.006835   -0.004608    0.159849
C    -1.041030   -0.751673    0.035322    0.000834   -0.000722   -0.001343
N    -0.811204    0.577210   -0.071689    0.000128    0.000164    0.000349
C     0.423106    1.261658   -0.096184    0.000081   -0.000346   -0.000160
O    -2.084953   -1.326744    0.055936   -0.000286   -0.000021   -0.000275
O     0.451026    2.464421   -0.197537    0.000028    0.000164    0.000075
H     2.382051   -1.607533    0.201655    0.000456   -0.000454   -0.002333
H     0.131440   -2.202477    1.085164    0.148059    0.877862   -1.342095
H    -1.647790    1.160996   -0.147425   -0.003543    0.003307    0.002255
H     2.590643    0.904297   -0.008991   -0.004815   -0.001771    0.003240
H     0.191516   -2.247209   -0.566043   -0.054136   -0.810125   -0.849284
13
* Frequency(37) 3347.5500
C     1.621095    0.403482    0.008906    0.000558    0.000700    0.000661
C     1.539106   -0.919078    0.120888   -0.000526   -0.000417   -0.002070
N     0.235724   -1.584119    0.116418   -0.006835   -0.004608    0.159849
C    -1.041121   -0.751594    0.035468    0.000834   -0.000722   -0.001343
N    -0.811218    0.577192   -0.071727    0.000128    0.000164    0.000349
C     0.423098    1.261696   -0.096167    0.000081   -0.000346   -0.000160
O    -2.084922   -1.326741    0.055966   -0.000286   -0.000021   -0.000275
O     0.451023    2.464403   -0.197545    0.000028    0.000164    0.000075
H     2.382001   -1.607483    0.201909    0.000456   -0.000454   -0.002333
H     0.115305   -2.298140    1.231417    0.148059    0.877862   -1.342095
H    -1.647404    1.160635   -0.147671   -0.003543    0.003307    0.002255
H     2.591168    0.904490   -0.009344   -0.004815   -0.001771    0.003240
H     0.197416   -2.158927   -0.473494   -0.054136   -0.810125   -0.849284
13
* Frequency(37) 3347.5500
C     1.621045    0.403418    0.008846    0.000558    0.000700    0.000661
C     1.539153   -0.919040    0.121076   -0.000526   -0.000417   -0.002070
N     0.236346   -1.583700    0.101885   -0.006835   -0.004608    0.159849
C    -1.041197   -0.751529    0.035590    0.000834   -0.000722   -0.001343
N    -0.811229    0.577177   -0.071759    0.000128    0.000164    0.000349
C     0.423090    1.261727   -0.096152    0.000081   -0.000346   -0.000160
O    -2.084896   -1.326739    0.055991   -0.000286   -0.000021   -0.000275
O     0.451020    2.464388   -0.197552    0.000028    0.000164    0.000075
H     2.381959   -1.607442    0.202121    0.000456   -0.000454   -0.002333
H     0.101843   -2.377957    1.353443    0.148059    0.877862   -1.342095
H    -1.647082    1.160335   -0.147876   -0.003543    0.003307    0.002255
H     2.591606    0.904651   -0.009639   -0.004815   -0.001771    0.003240
H     0.202338   -2.085269   -0.396275   -0.054136   -0.810125   -0.849284
13
* Frequency(37) 3347.5500
C     1.621009    0.403374    0.008804    0.000558    0.000700    0.000661
C     1.539187   -0.919014    0.121206   -0.000526   -0.000417   -0.002070
N     0.236777   -1.583410    0.091811   -0.006835   -0.004608    0.159849
C    -1.041249   -0.751483    0.035675    0.000834   -0.000722   -0.001343
N    -0.811237    0.577166   -0.071781    0.000128    0.000164    0.000349
C     0.423085    1.261749   -0.096142    0.000081   -0.000346   -0.000160
O    -2.084878   -1.326738    0.056008   -0.000286   -0.000021   -0.000275
O     0.451018    2.464378   -0.197557    0.000028    0.000164    0.000075
H     2.381931   -1.607413    0.202268    0.000456   -0.000454   -0.002333
H     0.092513   -2.433278    1.438018    0.148059    0.877862   -1.342095
H    -1.646858    1.160126   -0.148018   -0.003543    0.003307    0.002255
H     2.591909    0.904762   -0.009843   -0.004815   -0.001771    0.003240
H     0.205749   -2.034217   -0.342756   -0.054136   -0.810125   -0.849284
13
* Frequency(37) 3347.5500
C     1.620994    0.403354    0.008785    0.000558    0.000700    0.000661
C     1.539201   -0.919002    0.121265   -0.000526   -0.000417   -0.002070
N     0.236970   -1.583280    0.087290   -0.006835   -0.004608    0.159849
C    -1.041273   -0.751463    0.035713    0.000834   -0.000722   -0.001343
N    -0.811241    0.577162   -0.071791    0.000128    0.000164    0.000349
C     0.423083    1.261759   -0.096138    0.000081   -0.000346   -0.000160
O    -2.084870   -1.326737    0.056016   -0.000286   -0.000021   -0.000275
O     0.451018    2.464373   -0.197559    0.000028    0.000164    0.000075
H     2.381918   -1.607400    0.202334    0.000456   -0.000454   -0.002333
H     0.088325   -2.458107    1.475978    0.148059    0.877862   -1.342095
H    -1.646758    1.160033   -0.148082   -0.003543    0.003307    0.002255
H     2.592045    0.904812   -0.009935   -0.004815   -0.001771    0.003240
H     0.207280   -2.011303   -0.318735   -0.054136   -0.810125   -0.849284
13
* Frequency(37) 3347.5500
C     1.620999    0.403361    0.008792    0.000558    0.000700    0.000661
C     1.539196   -0.919006    0.121245   -0.000526   -0.000417   -0.002070
N     0.236905   -1.583323    0.088811   -0.006835   -0.004608    0.159849
C    -1.041265   -0.751470    0.035700    0.000834   -0.000722   -0.001343
N    -0.811240    0.577163   -0.071787    0.000128    0.000164    0.000349
C     0.423084    1.261755   -0.096139    0.000081   -0.000346   -0.000160
O    -2.084873   -1.326738    0.056014   -0.000286   -0.000021   -0.000275
O     0.451018    2.464375   -0.197558    0.000028    0.000164    0.000075
H     2.381922   -1.607405    0.202312    0.000456   -0.000454   -0.002333
H     0.089734   -2.449755    1.463208    0.148059    0.877862   -1.342095
H    -1.646792    1.160064   -0.148060   -0.003543    0.003307    0.002255
H     2.591999    0.904796   -0.009904   -0.004815   -0.001771    0.003240
H     0.206765   -2.019011   -0.326815   -0.054136   -0.810125   -0.849284
13
* Frequency(37) 3347.5500
C     1.621025    0.403393    0.008822    0.000558    0.000700    0.000661
C     1.539172   -0.919025    0.121149   -0.000526   -0.000417   -0.002070
N     0.236589   -1.583537    0.096209   -0.006835   -0.004608    0.159849
C    -1.041226   -0.751503    0.035638    0.000834   -0.000722   -0.001343
N    -0.811234    0.577171   -0.071771    0.000128    0.000164    0.000349
C     0.423087    1.261739   -0.096147    0.000081   -0.000346   -0.000160
O    -2.084886   -1.326739    0.056001   -0.000286   -0.000021   -0.000275
O     0.451019    2.464383   -0.197555    0.000028    0.000164    0.000075
H     2.381943   -1.607426    0.202204    0.000456   -0.000454   -0.002333
H     0.096586   -2.409125    1.401094    0.148059    0.877862   -1.342095
H    -1.646956    1.160217   -0.147956   -0.003543    0.003307    0.002255
H     2.591776    0.904714   -0.009754   -0.004815   -0.001771    0.003240
H     0.204260   -2.056505   -0.366122   -0.054136   -0.810125   -0.849284
13
* Frequency(37) 3347.5500
C     1.621068    0.403448    0.008874    0.000558    0.000700    0.000661
C     1.539131   -0.919058    0.120988   -0.000526   -0.000417   -0.002070
N     0.236055   -1.583896    0.108683   -0.006835   -0.004608    0.159849
C    -1.041161   -0.751559    0.035533    0.000834   -0.000722   -0.001343
N    -0.811224    0.577184   -0.071744    0.000128    0.000164    0.000349
C     0.423094    1.261713   -0.096159    0.000081   -0.000346   -0.000160
O    -2.084908   -1.326740    0.055979   -0.000286   -0.000021   -0.000275
O     0.451021    2.464395   -0.197549    0.000028    0.000164    0.000075
H     2.381979   -1.607461    0.202022    0.000456   -0.000454   -0.002333
H     0.108140   -2.340623    1.296365    0.148059    0.877862   -1.342095
H    -1.647232    1.160475   -0.147780   -0.003543    0.003307    0.002255
H     2.591401    0.904575   -0.009501   -0.004815   -0.001771    0.003240
H     0.200035   -2.119722   -0.432395   -0.054136   -0.810125   -0.849284
13
* Frequency(37) 3347.5500
C     1.621125    0.403519    0.008941    0.000558    0.000700    0.000661
C     1.539078   -0.919100    0.120778   -0.000526   -0.000417   -0.002070
N     0.235363   -1.584363    0.124880   -0.006835   -0.004608    0.159849
C    -1.041077   -0.751633    0.035397    0.000834   -0.000722   -0.001343
N    -0.811211    0.577200   -0.071708    0.000128    0.000164    0.000349
C     0.423102    1.261678   -0.096175    0.000081   -0.000346   -0.000160
O    -2.084937   -1.326742    0.055952   -0.000286   -0.000021   -0.000275
O     0.451024    2.464412   -0.197541    0.000028    0.000164    0.000075
H     2.382025   -1.607507    0.201786    0.000456   -0.000454   -0.002333
H     0.123143   -2.251669    1.160371    0.148059    0.877862   -1.342095
H    -1.647591    1.160810   -0.147552   -0.003543    0.003307    0.002255
H     2.590913    0.904396   -0.009173   -0.004815   -0.001771    0.003240
H     0.194550   -2.201812   -0.518452   -0.054136   -0.810125   -0.849284
13
* Frequency(37) 3347.5500
C     1.621188    0.403598    0.009016    0.000558    0.000700    0.000661
C     1.539018   -0.919147    0.120543   -0.000526   -0.000417   -0.002070
N     0.234586   -1.584887    0.143046   -0.006835   -0.004608    0.159849
C    -1.040982   -0.751715    0.035244    0.000834   -0.000722   -0.001343
N    -0.811196    0.577219   -0.071669    0.000128    0.000164    0.000349
C     0.423111    1.261638   -0.096194    0.000081   -0.000346   -0.000160
O    -2.084970   -1.326745    0.055920   -0.000286   -0.000021   -0.000275
O     0.451027    2.464431   -0.197533    0.000028    0.000164    0.000075
H     2.382077   -1.607559    0.201521    0.000456   -0.000454   -0.002333
H     0.139969   -2.151905    1.007849    0.148059    0.877862   -1.342095
H    -1.647994    1.161186   -0.147295   -0.003543    0.003307    0.002255
H     2.590366    0.904195   -0.008805   -0.004815   -0.001771    0.003240
H     0.188398   -2.293879   -0.614969   -0.054136   -0.810125   -0.849284
