13
* (null), Energy   -1000.0000000
C     1.621188    0.403598    0.009016   -0.118321   -0.056200    0.001733
C     1.539018   -0.919147    0.120543    0.088010   -0.072081    0.008511
N     0.234586   -1.584887    0.143046   -0.000816   -0.000860   -0.000121
C    -1.040982   -0.751715    0.035244   -0.001233    0.000111   -0.000014
N    -0.811196    0.577219   -0.071669    0.000629   -0.000149    0.000024
C     0.423111    1.261638   -0.096194    0.003097   -0.001458    0.000220
O    -2.084970   -1.326745    0.055920    0.000002    0.000050   -0.000012
O     0.451027    2.464431   -0.197533   -0.000322    0.000548   -0.000054
H     2.382077   -1.607559    0.201521   -1.010116    0.822428   -0.096584
H     0.139969   -2.151905    1.007849    0.009710    0.016992   -0.023787
H    -1.647994    1.161186   -0.147295    0.001096    0.000135    0.000019
H     2.590366    0.904195   -0.008805    1.337654    0.686868   -0.024492
H     0.188398   -2.293879   -0.614969    0.008307    0.022714    0.022719
13
* Frequency(34) 3233.7186
C     1.607742    0.397211    0.009213   -0.118321   -0.056200    0.001733
C     1.549020   -0.927339    0.121510    0.088010   -0.072081    0.008511
N     0.234493   -1.584985    0.143032   -0.000816   -0.000860   -0.000121
C    -1.041122   -0.751702    0.035243   -0.001233    0.000111   -0.000014
N    -0.811125    0.577202   -0.071666    0.000629   -0.000149    0.000024
C     0.423463    1.261472   -0.096169    0.003097   -0.001458    0.000220
O    -2.084970   -1.326739    0.055919    0.000002    0.000050   -0.000012
O     0.450991    2.464493   -0.197539   -0.000322    0.000548   -0.000054
H     2.267282   -1.514094    0.190544   -1.010116    0.822428   -0.096584
H     0.141072   -2.149974    1.005146    0.009710    0.016992   -0.023787
H    -1.647870    1.161201   -0.147293    0.001096    0.000135    0.000019
H     2.742383    0.982254   -0.011588    1.337654    0.686868   -0.024492
H     0.189342   -2.291297   -0.612387    0.008307    0.022714    0.022719
13
* Frequency(34) 3233.7186
C     1.595752    0.391517    0.009389   -0.118321   -0.056200    0.001733
C     1.557938   -0.934643    0.122372    0.088010   -0.072081    0.008511
N     0.234411   -1.585072    0.143020   -0.000816   -0.000860   -0.000121
C    -1.041247   -0.751691    0.035241   -0.001233    0.000111   -0.000014
N    -0.811061    0.577187   -0.071664    0.000629   -0.000149    0.000024
C     0.423777    1.261325   -0.096146    0.003097   -0.001458    0.000220
O    -2.084969   -1.326734    0.055918    0.000002    0.000050   -0.000012
O     0.450958    2.464548   -0.197545   -0.000322    0.000548   -0.000054
H     2.164928   -1.430758    0.180758   -1.010116    0.822428   -0.096584
H     0.142056   -2.148252    1.002735    0.009710    0.016992   -0.023787
H    -1.647758    1.161215   -0.147291    0.001096    0.000135    0.000019
H     2.877927    1.051854   -0.014070    1.337654    0.686868   -0.024492
H     0.190183   -2.288996   -0.610085    0.008307    0.022714    0.022719
13
* Frequency(34) 3233.7186
C     1.586519    0.387131    0.009524   -0.118321   -0.056200    0.001733
C     1.564805   -0.940268    0.123036    0.088010   -0.072081    0.008511
N     0.234347   -1.585139    0.143011   -0.000816   -0.000860   -0.000121
C    -1.041343   -0.751682    0.035240   -0.001233    0.000111   -0.000014
N    -0.811012    0.577175   -0.071662    0.000629   -0.000149    0.000024
C     0.424019    1.261211   -0.096129    0.003097   -0.001458    0.000220
O    -2.084969   -1.326730    0.055917    0.000002    0.000050   -0.000012
O     0.450933    2.464591   -0.197549   -0.000322    0.000548   -0.000054
H     2.086104   -1.366580    0.173221   -1.010116    0.822428   -0.096584
H     0.142814   -2.146926    1.000879    0.009710    0.016992   -0.023787
H    -1.647673    1.161226   -0.147290    0.001096    0.000135    0.000019
H     2.982309    1.105453   -0.015981    1.337654    0.686868   -0.024492
H     0.190832   -2.287223   -0.608312    0.008307    0.022714    0.022719
13
* Frequency(34) 3233.7186
C     1.581043    0.384530    0.009604   -0.118321   -0.056200    0.001733
C     1.568879   -0.943604    0.123430    0.088010   -0.072081    0.008511
N     0.234309   -1.585178    0.143005   -0.000816   -0.000860   -0.000121
C    -1.041400   -0.751677    0.035240   -0.001233    0.000111   -0.000014
N    -0.810983    0.577168   -0.071661    0.000629   -0.000149    0.000024
C     0.424162    1.261143   -0.096119    0.003097   -0.001458    0.000220
O    -2.084969   -1.326728    0.055916    0.000002    0.000050   -0.000012
O     0.450918    2.464617   -0.197551   -0.000322    0.000548   -0.000054
H     2.039354   -1.328517    0.168751   -1.010116    0.822428   -0.096584
H     0.143263   -2.146139    0.999778    0.009710    0.016992   -0.023787
H    -1.647622    1.161232   -0.147289    0.001096    0.000135    0.000019
H     3.044219    1.137242   -0.017115    1.337654    0.686868   -0.024492
H     0.191216   -2.286172   -0.607260    0.008307    0.022714    0.022719
13
* Frequency(34) 3233.7186
C     1.579917    0.383995    0.009620   -0.118321   -0.056200    0.001733
C     1.569716   -0.944289    0.123511    0.088010   -0.072081    0.008511
N     0.234301   -1.585187    0.143004   -0.000816   -0.000860   -0.000121
C    -1.041412   -0.751676    0.035240   -0.001233    0.000111   -0.000014
N    -0.810977    0.577167   -0.071660    0.000629   -0.000149    0.000024
C     0.424191    1.261130   -0.096117    0.003097   -0.001458    0.000220
O    -2.084969   -1.326727    0.055916    0.000002    0.000050   -0.000012
O     0.450915    2.464622   -0.197552   -0.000322    0.000548   -0.000054
H     2.029744   -1.320692    0.167832   -1.010116    0.822428   -0.096584
H     0.143356   -2.145978    0.999552    0.009710    0.016992   -0.023787
H    -1.647612    1.161233   -0.147289    0.001096    0.000135    0.000019
H     3.056946    1.143778   -0.017348    1.337654    0.686868   -0.024492
H     0.191295   -2.285956   -0.607044    0.008307    0.022714    0.022719
13
* Frequency(34) 3233.7186
C     1.583264    0.385585    0.009571   -0.118321   -0.056200    0.001733
C     1.567227   -0.942251    0.123271    0.088010   -0.072081    0.008511
N     0.234324   -1.585162    0.143007   -0.000816   -0.000860   -0.000121
C    -1.041377   -0.751679    0.035240   -0.001233    0.000111   -0.000014
N    -0.810995    0.577171   -0.071661    0.000629   -0.000149    0.000024
C     0.424104    1.261171   -0.096123    0.003097   -0.001458    0.000220
O    -2.084969   -1.326729    0.055917    0.000002    0.000050   -0.000012
O     0.450924    2.464606   -0.197550   -0.000322    0.000548   -0.000054
H     2.058314   -1.343954    0.170564   -1.010116    0.822428   -0.096584
H     0.143081   -2.146458    1.000225    0.009710    0.016992   -0.023787
H    -1.647643    1.161229   -0.147289    0.001096    0.000135    0.000019
H     3.019112    1.124350   -0.016655    1.337654    0.686868   -0.024492
H     0.191060   -2.286598   -0.607687    0.008307    0.022714    0.022719
13
* Frequency(34) 3233.7186
C     1.590720    0.389126    0.009462   -0.118321   -0.056200    0.001733
C     1.561681   -0.937708    0.122734    0.088010   -0.072081    0.008511
N     0.234376   -1.585108    0.143015   -0.000816   -0.000860   -0.000121
C    -1.041299   -0.751686    0.035241   -0.001233    0.000111   -0.000014
N    -0.811034    0.577181   -0.071663    0.000629   -0.000149    0.000024
C     0.423909    1.261263   -0.096137    0.003097   -0.001458    0.000220
O    -2.084969   -1.326732    0.055917    0.000002    0.000050   -0.000012
O     0.450944    2.464572   -0.197547   -0.000322    0.000548   -0.000054
H     2.121969   -1.395781    0.176650   -1.010116    0.822428   -0.096584
H     0.142469   -2.147529    1.001724    0.009710    0.016992   -0.023787
H    -1.647712    1.161221   -0.147291    0.001096    0.000135    0.000019
H     2.934816    1.081066   -0.015111    1.337654    0.686868   -0.024492
H     0.190537   -2.288030   -0.609118    0.008307    0.022714    0.022719
13
* Frequency(34) 3233.7186
C     1.601478    0.394236    0.009305   -0.118321   -0.056200    0.001733
C     1.553679   -0.931155    0.121960    0.088010   -0.072081    0.008511
N     0.234450   -1.585030    0.143026   -0.000816   -0.000860   -0.000121
C    -1.041187   -0.751696    0.035242   -0.001233    0.000111   -0.000014
N    -0.811091    0.577194   -0.071665    0.000629   -0.000149    0.000024
C     0.423627    1.261395   -0.096157    0.003097   -0.001458    0.000220
O    -2.084970   -1.326737    0.055918    0.000002    0.000050   -0.000012
O     0.450974    2.464522   -0.197542   -0.000322    0.000548   -0.000054
H     2.213810   -1.470557    0.185432   -1.010116    0.822428   -0.096584
H     0.141586   -2.149074    1.003886    0.009710    0.016992   -0.023787
H    -1.647811    1.161209   -0.147292    0.001096    0.000135    0.000019
H     2.813194    1.018614   -0.012885    1.337654    0.686868   -0.024492
H     0.189781   -2.290095   -0.611184    0.008307    0.022714    0.022719
13
* Frequency(34) 3233.7186
C     1.614372    0.400361    0.009116   -0.118321   -0.056200    0.001733
C     1.544088   -0.923300    0.121033    0.088010   -0.072081    0.008511
N     0.234539   -1.584936    0.143039   -0.000816   -0.000860   -0.000121
C    -1.041053   -0.751708    0.035244   -0.001233    0.000111   -0.000014
N    -0.811160    0.577210   -0.071667    0.000629   -0.000149    0.000024
C     0.423290    1.261554   -0.096181    0.003097   -0.001458    0.000220
O    -2.084970   -1.326742    0.055920    0.000002    0.000050   -0.000012
O     0.451009    2.464462   -0.197536   -0.000322    0.000548   -0.000054
H     2.323886   -1.560180    0.195957   -1.010116    0.822428   -0.096584
H     0.140528   -2.150926    1.006478    0.009710    0.016992   -0.023787
H    -1.647931    1.161194   -0.147294    0.001096    0.000135    0.000019
H     2.667426    0.943764   -0.010216    1.337654    0.686868   -0.024492
H     0.188876   -2.292570   -0.613660    0.008307    0.022714    0.022719
13
* Frequency(34) 3233.7186
C     1.628004    0.406836    0.008916   -0.118321   -0.056200    0.001733
C     1.533948   -0.914995    0.120052    0.088010   -0.072081    0.008511
N     0.234633   -1.584837    0.143053   -0.000816   -0.000860   -0.000121
C    -1.040911   -0.751721    0.035245   -0.001233    0.000111   -0.000014
N    -0.811233    0.577228   -0.071670    0.000629   -0.000149    0.000024
C     0.422933    1.261722   -0.096206    0.003097   -0.001458    0.000220
O    -2.084970   -1.326748    0.055921    0.000002    0.000050   -0.000012
O     0.451046    2.464399   -0.197530   -0.000322    0.000548   -0.000054
H     2.440268   -1.654937    0.207085   -1.010116    0.822428   -0.096584
H     0.139410   -2.152883    1.009219    0.009710    0.016992   -0.023787
H    -1.648057    1.161178   -0.147297    0.001096    0.000135    0.000019
H     2.513306    0.864626   -0.007394    1.337654    0.686868   -0.024492
H     0.187919   -2.295187   -0.616278    0.008307    0.022714    0.022719
13
* Frequency(34) 3233.7186
C     1.640898    0.412960    0.008727   -0.118321   -0.056200    0.001733
C     1.524357   -0.907140    0.119125    0.088010   -0.072081    0.008511
N     0.234722   -1.584744    0.143066   -0.000816   -0.000860   -0.000121
C    -1.040777   -0.751733    0.035247   -0.001233    0.000111   -0.000014
N    -0.811301    0.577244   -0.071673    0.000629   -0.000149    0.000024
C     0.422595    1.261881   -0.096230    0.003097   -0.001458    0.000220
O    -2.084970   -1.326753    0.055922    0.000002    0.000050   -0.000012
O     0.451081    2.464339   -0.197524   -0.000322    0.000548   -0.000054
H     2.550344   -1.744560    0.217610   -1.010116    0.822428   -0.096584
H     0.138351   -2.154735    1.011811    0.009710    0.016992   -0.023787
H    -1.648177    1.161164   -0.147299    0.001096    0.000135    0.000019
H     2.367537    0.789775   -0.004725    1.337654    0.686868   -0.024492
H     0.187014   -2.297662   -0.618753    0.008307    0.022714    0.022719
13
* Frequency(34) 3233.7186
C     1.651656    0.418070    0.008570   -0.118321   -0.056200    0.001733
C     1.516355   -0.900586    0.118351    0.088010   -0.072081    0.008511
N     0.234796   -1.584665    0.143077   -0.000816   -0.000860   -0.000121
C    -1.040664   -0.751743    0.035248   -0.001233    0.000111   -0.000014
N    -0.811358    0.577257   -0.071675    0.000629   -0.000149    0.000024
C     0.422314    1.262014   -0.096250    0.003097   -0.001458    0.000220
O    -2.084970   -1.326758    0.055923    0.000002    0.000050   -0.000012
O     0.451110    2.464290   -0.197519   -0.000322    0.000548   -0.000054
H     2.642185   -1.819337    0.226391   -1.010116    0.822428   -0.096584
H     0.137469   -2.156280    1.013974    0.009710    0.016992   -0.023787
H    -1.648276    1.161151   -0.147300    0.001096    0.000135    0.000019
H     2.245915    0.727324   -0.002498    1.337654    0.686868   -0.024492
H     0.186259   -2.299728   -0.620819    0.008307    0.022714    0.022719
13
* Frequency(34) 3233.7186
C     1.659112    0.421611    0.008461   -0.118321   -0.056200    0.001733
C     1.510809   -0.896044    0.117815    0.088010   -0.072081    0.008511
N     0.234847   -1.584611    0.143085   -0.000816   -0.000860   -0.000121
C    -1.040587   -0.751750    0.035249   -0.001233    0.000111   -0.000014
N    -0.811398    0.577267   -0.071677    0.000629   -0.000149    0.000024
C     0.422118    1.262106   -0.096264    0.003097   -0.001458    0.000220
O    -2.084970   -1.326761    0.055924    0.000002    0.000050   -0.000012
O     0.451131    2.464255   -0.197515   -0.000322    0.000548   -0.000054
H     2.705840   -1.871164    0.232478   -1.010116    0.822428   -0.096584
H     0.136857   -2.157351    1.015473    0.009710    0.016992   -0.023787
H    -1.648345    1.161143   -0.147301    0.001096    0.000135    0.000019
H     2.161620    0.684039   -0.000954    1.337654    0.686868   -0.024492
H     0.185735   -2.301159   -0.622251    0.008307    0.022714    0.022719
13
* Frequency(34) 3233.7186
C     1.662459    0.423201    0.008412   -0.118321   -0.056200    0.001733
C     1.508320   -0.894005    0.117574    0.088010   -0.072081    0.008511
N     0.234870   -1.584587    0.143088   -0.000816   -0.000860   -0.000121
C    -1.040552   -0.751753    0.035249   -0.001233    0.000111   -0.000014
N    -0.811416    0.577271   -0.071677    0.000629   -0.000149    0.000024
C     0.422031    1.262147   -0.096270    0.003097   -0.001458    0.000220
O    -2.084970   -1.326762    0.055924    0.000002    0.000050   -0.000012
O     0.451140    2.464240   -0.197514   -0.000322    0.000548   -0.000054
H     2.734410   -1.894425    0.235209   -1.010116    0.822428   -0.096584
H     0.136582   -2.157831    1.016146    0.009710    0.016992   -0.023787
H    -1.648376    1.161139   -0.147302    0.001096    0.000135    0.000019
H     2.123786    0.664612   -0.000262    1.337654    0.686868   -0.024492
H     0.185500   -2.301801   -0.622893    0.008307    0.022714    0.022719
13
* Frequency(34) 3233.7186
C     1.661333    0.422666    0.008428   -0.118321   -0.056200    0.001733
C     1.509157   -0.894691    0.117655    0.088010   -0.072081    0.008511
N     0.234863   -1.584595    0.143087   -0.000816   -0.000860   -0.000121
C    -1.040564   -0.751752    0.035249   -0.001233    0.000111   -0.000014
N    -0.811410    0.577270   -0.071677    0.000629   -0.000149    0.000024
C     0.422060    1.262133   -0.096268    0.003097   -0.001458    0.000220
O    -2.084970   -1.326762    0.055924    0.000002    0.000050   -0.000012
O     0.451137    2.464245   -0.197514   -0.000322    0.000548   -0.000054
H     2.724799   -1.886601    0.234291   -1.010116    0.822428   -0.096584
H     0.136674   -2.157670    1.015919    0.009710    0.016992   -0.023787
H    -1.648366    1.161140   -0.147302    0.001096    0.000135    0.000019
H     2.136513    0.671147   -0.000495    1.337654    0.686868   -0.024492
H     0.185579   -2.301585   -0.622677    0.008307    0.022714    0.022719
13
* Frequency(34) 3233.7186
C     1.655857    0.420065    0.008508   -0.118321   -0.056200    0.001733
C     1.513230   -0.898027    0.118049    0.088010   -0.072081    0.008511
N     0.234825   -1.584635    0.143081   -0.000816   -0.000860   -0.000121
C    -1.040621   -0.751747    0.035249   -0.001233    0.000111   -0.000014
N    -0.811381    0.577263   -0.071676    0.000629   -0.000149    0.000024
C     0.422204    1.262066   -0.096258    0.003097   -0.001458    0.000220
O    -2.084970   -1.326759    0.055924    0.000002    0.000050   -0.000012
O     0.451122    2.464270   -0.197517   -0.000322    0.000548   -0.000054
H     2.678049   -1.848537    0.229820   -1.010116    0.822428   -0.096584
H     0.137124   -2.156883    1.014818    0.009710    0.016992   -0.023787
H    -1.648315    1.161147   -0.147301    0.001096    0.000135    0.000019
H     2.198422    0.702937   -0.001628    1.337654    0.686868   -0.024492
H     0.185964   -2.300534   -0.621626    0.008307    0.022714    0.022719
13
* Frequency(34) 3233.7186
C     1.646624    0.415680    0.008644   -0.118321   -0.056200    0.001733
C     1.520098   -0.903652    0.118713    0.088010   -0.072081    0.008511
N     0.234761   -1.584702    0.143072   -0.000816   -0.000860   -0.000121
C    -1.040717   -0.751738    0.035248   -0.001233    0.000111   -0.000014
N    -0.811332    0.577251   -0.071674    0.000629   -0.000149    0.000024
C     0.422445    1.261952   -0.096241    0.003097   -0.001458    0.000220
O    -2.084970   -1.326756    0.055923    0.000002    0.000050   -0.000012
O     0.451097    2.464313   -0.197521   -0.000322    0.000548   -0.000054
H     2.599226   -1.784360    0.222284   -1.010116    0.822428   -0.096584
H     0.137882   -2.155557    1.012962    0.009710    0.016992   -0.023787
H    -1.648230    1.161157   -0.147300    0.001096    0.000135    0.000019
H     2.302804    0.756536   -0.003539    1.337654    0.686868   -0.024492
H     0.186612   -2.298762   -0.619853    0.008307    0.022714    0.022719
13
* Frequency(34) 3233.7186
C     1.634635    0.409985    0.008819   -0.118321   -0.056200    0.001733
C     1.529016   -0.910956    0.119575    0.088010   -0.072081    0.008511
N     0.234679   -1.584789    0.143060   -0.000816   -0.000860   -0.000121
C    -1.040842   -0.751727    0.035246   -0.001233    0.000111   -0.000014
N    -0.811268    0.577236   -0.071672    0.000629   -0.000149    0.000024
C     0.422759    1.261804   -0.096219    0.003097   -0.001458    0.000220
O    -2.084970   -1.326750    0.055922    0.000002    0.000050   -0.000012
O     0.451064    2.464368   -0.197527   -0.000322    0.000548   -0.000054
H     2.496871   -1.701023    0.212497   -1.010116    0.822428   -0.096584
H     0.138865   -2.153836    1.010552    0.009710    0.016992   -0.023787
H    -1.648119    1.161171   -0.147298    0.001096    0.000135    0.000019
H     2.438348    0.826136   -0.006021    1.337654    0.686868   -0.024492
H     0.187454   -2.296460   -0.617551    0.008307    0.022714    0.022719
13
* Frequency(34) 3233.7186
C     1.621188    0.403598    0.009016   -0.118321   -0.056200    0.001733
C     1.539018   -0.919147    0.120543    0.088010   -0.072081    0.008511
N     0.234586   -1.584887    0.143046   -0.000816   -0.000860   -0.000121
C    -1.040982   -0.751715    0.035244   -0.001233    0.000111   -0.000014
N    -0.811196    0.577219   -0.071669    0.000629   -0.000149    0.000024
C     0.423111    1.261638   -0.096194    0.003097   -0.001458    0.000220
O    -2.084970   -1.326745    0.055920    0.000002    0.000050   -0.000012
O     0.451027    2.464431   -0.197533   -0.000322    0.000548   -0.000054
H     2.382077   -1.607559    0.201521   -1.010116    0.822428   -0.096584
H     0.139969   -2.151905    1.007849    0.009710    0.016992   -0.023787
H    -1.647994    1.161186   -0.147295    0.001096    0.000135    0.000019
H     2.590366    0.904195   -0.008805    1.337654    0.686868   -0.024492
H     0.188398   -2.293879   -0.614969    0.008307    0.022714    0.022719
