13
* (null), Energy   -1000.0000000
C     1.621188    0.403598    0.009016   -0.002186    0.050921   -0.004623
C     1.539018   -0.919147    0.120543   -0.004966   -0.026881    0.004004
N     0.234586   -1.584887    0.143046    0.030996    0.127054   -0.015632
C    -1.040982   -0.751715    0.035244   -0.019872    0.028978    0.000543
N    -0.811196    0.577219   -0.071669   -0.000446   -0.015131    0.001143
C     0.423111    1.261638   -0.096194   -0.006633    0.000260   -0.000159
O    -2.084970   -1.326745    0.055920    0.011575    0.003415   -0.000187
O     0.451027    2.464431   -0.197533    0.003536   -0.004456    0.000612
H     2.382077   -1.607559    0.201521    0.013179   -0.008515   -0.000424
H     0.139969   -2.151905    1.007849   -0.156007   -1.124455   -0.800950
H    -1.647994    1.161186   -0.147295    0.013523    0.002142   -0.000545
H     2.590366    0.904195   -0.008805    0.045779   -0.033382    0.003072
H     0.188398   -2.293879   -0.614969   -0.179791   -1.009377    0.996244
13
* Frequency(30) 1529.2709
C     1.620940    0.409385    0.008491   -0.002186    0.050921   -0.004623
C     1.538453   -0.922202    0.120998   -0.004966   -0.026881    0.004004
N     0.238108   -1.570448    0.141270    0.030996    0.127054   -0.015632
C    -1.043240   -0.748421    0.035306   -0.019872    0.028978    0.000543
N    -0.811247    0.575499   -0.071539   -0.000446   -0.015131    0.001143
C     0.422357    1.261668   -0.096212   -0.006633    0.000260   -0.000159
O    -2.083654   -1.326357    0.055899    0.011575    0.003415   -0.000187
O     0.451429    2.463924   -0.197463    0.003536   -0.004456    0.000612
H     2.383575   -1.608526    0.201473    0.013179   -0.008515   -0.000424
H     0.122240   -2.279693    0.916825   -0.156007   -1.124455   -0.800950
H    -1.646457    1.161430   -0.147357    0.013523    0.002142   -0.000545
H     2.595568    0.900401   -0.008456    0.045779   -0.033382    0.003072
H     0.167965   -2.408589   -0.501751   -0.179791   -1.009377    0.996244
13
* Frequency(30) 1529.2709
C     1.620718    0.414545    0.008022   -0.002186    0.050921   -0.004623
C     1.537950   -0.924926    0.121403   -0.004966   -0.026881    0.004004
N     0.241249   -1.557573    0.139686    0.030996    0.127054   -0.015632
C    -1.045254   -0.745485    0.035361   -0.019872    0.028978    0.000543
N    -0.811292    0.573966   -0.071423   -0.000446   -0.015131    0.001143
C     0.421685    1.261694   -0.096228   -0.006633    0.000260   -0.000159
O    -2.082481   -1.326011    0.055880    0.011575    0.003415   -0.000187
O     0.451788    2.463473   -0.197401    0.003536   -0.004456    0.000612
H     2.384910   -1.609389    0.201430    0.013179   -0.008515   -0.000424
H     0.106432   -2.393634    0.835665   -0.156007   -1.124455   -0.800950
H    -1.645087    1.161647   -0.147413    0.013523    0.002142   -0.000545
H     2.600207    0.897018   -0.008144    0.045779   -0.033382    0.003072
H     0.149747   -2.510869   -0.400802   -0.179791   -1.009377    0.996244
13
* Frequency(30) 1529.2709
C     1.620548    0.418518    0.007661   -0.002186    0.050921   -0.004623
C     1.537563   -0.927024    0.121716   -0.004966   -0.026881    0.004004
N     0.243668   -1.547659    0.138466    0.030996    0.127054   -0.015632
C    -1.046805   -0.743224    0.035404   -0.019872    0.028978    0.000543
N    -0.811327    0.572786   -0.071334   -0.000446   -0.015131    0.001143
C     0.421168    1.261714   -0.096240   -0.006633    0.000260   -0.000159
O    -2.081578   -1.325744    0.055866    0.011575    0.003415   -0.000187
O     0.452064    2.463125   -0.197354    0.003536   -0.004456    0.000612
H     2.385939   -1.610054    0.201396    0.013179   -0.008515   -0.000424
H     0.094258   -2.481379    0.773164   -0.156007   -1.124455   -0.800950
H    -1.644032    1.161814   -0.147455    0.013523    0.002142   -0.000545
H     2.603779    0.894414   -0.007905    0.045779   -0.033382    0.003072
H     0.135717   -2.589635   -0.323061   -0.179791   -1.009377    0.996244
13
* Frequency(30) 1529.2709
C     1.620446    0.420875    0.007447   -0.002186    0.050921   -0.004623
C     1.537333   -0.928268    0.121901   -0.004966   -0.026881    0.004004
N     0.245103   -1.541779    0.137742    0.030996    0.127054   -0.015632
C    -1.047724   -0.741883    0.035429   -0.019872    0.028978    0.000543
N    -0.811348    0.572085   -0.071281   -0.000446   -0.015131    0.001143
C     0.420861    1.261726   -0.096248   -0.006633    0.000260   -0.000159
O    -2.081042   -1.325586    0.055857    0.011575    0.003415   -0.000187
O     0.452227    2.462919   -0.197325    0.003536   -0.004456    0.000612
H     2.386549   -1.610448    0.201377    0.013179   -0.008515   -0.000424
H     0.087037   -2.533421    0.736094   -0.156007   -1.124455   -0.800950
H    -1.643406    1.161913   -0.147480    0.013523    0.002142   -0.000545
H     2.605898    0.892869   -0.007762    0.045779   -0.033382    0.003072
H     0.127396   -2.636350   -0.276953   -0.179791   -1.009377    0.996244
13
* Frequency(30) 1529.2709
C     1.620426    0.421360    0.007403   -0.002186    0.050921   -0.004623
C     1.537286   -0.928523    0.121939   -0.004966   -0.026881    0.004004
N     0.245397   -1.540570    0.137594    0.030996    0.127054   -0.015632
C    -1.047913   -0.741607    0.035434   -0.019872    0.028978    0.000543
N    -0.811352    0.571941   -0.071270   -0.000446   -0.015131    0.001143
C     0.420798    1.261729   -0.096249   -0.006633    0.000260   -0.000159
O    -2.080932   -1.325554    0.055855    0.011575    0.003415   -0.000187
O     0.452261    2.462876   -0.197319    0.003536   -0.004456    0.000612
H     2.386674   -1.610529    0.201373    0.013179   -0.008515   -0.000424
H     0.085553   -2.544120    0.728474   -0.156007   -1.124455   -0.800950
H    -1.643277    1.161933   -0.147485    0.013523    0.002142   -0.000545
H     2.606334    0.892551   -0.007733    0.045779   -0.033382    0.003072
H     0.125686   -2.645954   -0.267474   -0.179791   -1.009377    0.996244
13
* Frequency(30) 1529.2709
C     1.620487    0.419919    0.007534   -0.002186    0.050921   -0.004623
C     1.537426   -0.927763    0.121826   -0.004966   -0.026881    0.004004
N     0.244521   -1.544163    0.138036    0.030996    0.127054   -0.015632
C    -1.047351   -0.742426    0.035419   -0.019872    0.028978    0.000543
N    -0.811339    0.572369   -0.071303   -0.000446   -0.015131    0.001143
C     0.420985    1.261721   -0.096245   -0.006633    0.000260   -0.000159
O    -2.081260   -1.325650    0.055860    0.011575    0.003415   -0.000187
O     0.452161    2.463002   -0.197337    0.003536   -0.004456    0.000612
H     2.386301   -1.610288    0.201385    0.013179   -0.008515   -0.000424
H     0.089966   -2.512316    0.751128   -0.156007   -1.124455   -0.800950
H    -1.643660    1.161873   -0.147470    0.013523    0.002142   -0.000545
H     2.605039    0.893495   -0.007820    0.045779   -0.033382    0.003072
H     0.130771   -2.617405   -0.295652   -0.179791   -1.009377    0.996244
13
* Frequency(30) 1529.2709
C     1.620625    0.416711    0.007825   -0.002186    0.050921   -0.004623
C     1.537739   -0.926069    0.121574   -0.004966   -0.026881    0.004004
N     0.242568   -1.552170    0.139021    0.030996    0.127054   -0.015632
C    -1.046099   -0.744253    0.035384   -0.019872    0.028978    0.000543
N    -0.811311    0.573323   -0.071375   -0.000446   -0.015131    0.001143
C     0.421403    1.261705   -0.096235   -0.006633    0.000260   -0.000159
O    -2.081989   -1.325865    0.055872    0.011575    0.003415   -0.000187
O     0.451938    2.463283   -0.197375    0.003536   -0.004456    0.000612
H     2.385471   -1.609751    0.201412    0.013179   -0.008515   -0.000424
H     0.099797   -2.441455    0.801601   -0.156007   -1.124455   -0.800950
H    -1.644512    1.161738   -0.147436    0.013523    0.002142   -0.000545
H     2.602154    0.895599   -0.008014    0.045779   -0.033382    0.003072
H     0.142101   -2.553797   -0.358432   -0.179791   -1.009377    0.996244
13
* Frequency(30) 1529.2709
C     1.620824    0.412081    0.008246   -0.002186    0.050921   -0.004623
C     1.538191   -0.923625    0.121210   -0.004966   -0.026881    0.004004
N     0.239749   -1.563722    0.140442    0.030996    0.127054   -0.015632
C    -1.044292   -0.746887    0.035335   -0.019872    0.028978    0.000543
N    -0.811271    0.574699   -0.071478   -0.000446   -0.015131    0.001143
C     0.422006    1.261681   -0.096220   -0.006633    0.000260   -0.000159
O    -2.083042   -1.326176    0.055889    0.011575    0.003415   -0.000187
O     0.451616    2.463688   -0.197431    0.003536   -0.004456    0.000612
H     2.384272   -1.608977    0.201450    0.013179   -0.008515   -0.000424
H     0.113981   -2.339218    0.874425   -0.156007   -1.124455   -0.800950
H    -1.645741    1.161543   -0.147386    0.013523    0.002142   -0.000545
H     2.597992    0.898634   -0.008293    0.045779   -0.033382    0.003072
H     0.158448   -2.462022   -0.449013   -0.179791   -1.009377    0.996244
13
* Frequency(30) 1529.2709
C     1.621062    0.406532    0.008750   -0.002186    0.050921   -0.004623
C     1.538732   -0.920696    0.120773   -0.004966   -0.026881    0.004004
N     0.236372   -1.577567    0.142146    0.030996    0.127054   -0.015632
C    -1.042127   -0.750045    0.035276   -0.019872    0.028978    0.000543
N    -0.811222    0.576347   -0.071603   -0.000446   -0.015131    0.001143
C     0.422729    1.261653   -0.096203   -0.006633    0.000260   -0.000159
O    -2.084303   -1.326548    0.055910    0.011575    0.003415   -0.000187
O     0.451231    2.464174   -0.197498    0.003536   -0.004456    0.000612
H     2.382836   -1.608049    0.201496    0.013179   -0.008515   -0.000424
H     0.130982   -2.216682    0.961708   -0.156007   -1.124455   -0.800950
H    -1.647215    1.161309   -0.147327    0.013523    0.002142   -0.000545
H     2.593003    0.902272   -0.008628    0.045779   -0.033382    0.003072
H     0.178040   -2.352027   -0.557577   -0.179791   -1.009377    0.996244
13
* Frequency(30) 1529.2709
C     1.621314    0.400665    0.009282   -0.002186    0.050921   -0.004623
C     1.539304   -0.917599    0.120312   -0.004966   -0.026881    0.004004
N     0.232800   -1.592206    0.143947    0.030996    0.127054   -0.015632
C    -1.039837   -0.753384    0.035213   -0.019872    0.028978    0.000543
N    -0.811171    0.578091   -0.071735   -0.000446   -0.015131    0.001143
C     0.423493    1.261623   -0.096184   -0.006633    0.000260   -0.000159
O    -2.085637   -1.326942    0.055931    0.011575    0.003415   -0.000187
O     0.450824    2.464687   -0.197568    0.003536   -0.004456    0.000612
H     2.381318   -1.607068    0.201545    0.013179   -0.008515   -0.000424
H     0.148956   -2.087127    1.053990   -0.156007   -1.124455   -0.800950
H    -1.648773    1.161063   -0.147264    0.013523    0.002142   -0.000545
H     2.587729    0.906118   -0.008982    0.045779   -0.033382    0.003072
H     0.198755   -2.235730   -0.672361   -0.179791   -1.009377    0.996244
13
* Frequency(30) 1529.2709
C     1.621552    0.395116    0.009786   -0.002186    0.050921   -0.004623
C     1.539845   -0.914669    0.119876   -0.004966   -0.026881    0.004004
N     0.229423   -1.606052    0.145650    0.030996    0.127054   -0.015632
C    -1.037672   -0.756542    0.035154   -0.019872    0.028978    0.000543
N    -0.811122    0.579740   -0.071859   -0.000446   -0.015131    0.001143
C     0.424216    1.261595   -0.096167   -0.006633    0.000260   -0.000159
O    -2.086898   -1.327314    0.055951    0.011575    0.003415   -0.000187
O     0.450438    2.465173   -0.197635    0.003536   -0.004456    0.000612
H     2.379882   -1.606140    0.201591    0.013179   -0.008515   -0.000424
H     0.165957   -1.964591    1.141272   -0.156007   -1.124455   -0.800950
H    -1.650247    1.160829   -0.147205    0.013523    0.002142   -0.000545
H     2.582740    0.909756   -0.009316    0.045779   -0.033382    0.003072
H     0.218347   -2.125735   -0.780925   -0.179791   -1.009377    0.996244
13
* Frequency(30) 1529.2709
C     1.621751    0.390486    0.010207   -0.002186    0.050921   -0.004623
C     1.540297   -0.912225    0.119512   -0.004966   -0.026881    0.004004
N     0.226604   -1.617604    0.147071    0.030996    0.127054   -0.015632
C    -1.035865   -0.759177    0.035105   -0.019872    0.028978    0.000543
N    -0.811081    0.581115   -0.071963   -0.000446   -0.015131    0.001143
C     0.424819    1.261571   -0.096153   -0.006633    0.000260   -0.000159
O    -2.087950   -1.327624    0.055968    0.011575    0.003415   -0.000187
O     0.450117    2.465578   -0.197690    0.003536   -0.004456    0.000612
H     2.378683   -1.605366    0.201630    0.013179   -0.008515   -0.000424
H     0.180141   -1.862354    1.214096   -0.156007   -1.124455   -0.800950
H    -1.651476    1.160635   -0.147155    0.013523    0.002142   -0.000545
H     2.578578    0.912791   -0.009596    0.045779   -0.033382    0.003072
H     0.234694   -2.033961   -0.871505   -0.179791   -1.009377    0.996244
13
* Frequency(30) 1529.2709
C     1.621889    0.387277    0.010498   -0.002186    0.050921   -0.004623
C     1.540610   -0.910531    0.119259   -0.004966   -0.026881    0.004004
N     0.224651   -1.625610    0.148056    0.030996    0.127054   -0.015632
C    -1.034612   -0.761003    0.035070   -0.019872    0.028978    0.000543
N    -0.811053    0.582069   -0.072035   -0.000446   -0.015131    0.001143
C     0.425237    1.261555   -0.096142   -0.006633    0.000260   -0.000159
O    -2.088680   -1.327839    0.055980    0.011575    0.003415   -0.000187
O     0.449894    2.465859   -0.197729    0.003536   -0.004456    0.000612
H     2.377853   -1.604830    0.201657    0.013179   -0.008515   -0.000424
H     0.189972   -1.791494    1.264570   -0.156007   -1.124455   -0.800950
H    -1.652329    1.160500   -0.147121    0.013523    0.002142   -0.000545
H     2.575693    0.914894   -0.009789    0.045779   -0.033382    0.003072
H     0.246024   -1.970352   -0.934286   -0.179791   -1.009377    0.996244
13
* Frequency(30) 1529.2709
C     1.621951    0.385837    0.010629   -0.002186    0.050921   -0.004623
C     1.540750   -0.909771    0.119146   -0.004966   -0.026881    0.004004
N     0.223774   -1.629204    0.148498    0.030996    0.127054   -0.015632
C    -1.034050   -0.761822    0.035055   -0.019872    0.028978    0.000543
N    -0.811041    0.582497   -0.072067   -0.000446   -0.015131    0.001143
C     0.425425    1.261548   -0.096138   -0.006633    0.000260   -0.000159
O    -2.089007   -1.327936    0.055986    0.011575    0.003415   -0.000187
O     0.449794    2.465985   -0.197746    0.003536   -0.004456    0.000612
H     2.377480   -1.604589    0.201669    0.013179   -0.008515   -0.000424
H     0.194385   -1.759690    1.287224   -0.156007   -1.124455   -0.800950
H    -1.652711    1.160439   -0.147106    0.013523    0.002142   -0.000545
H     2.574398    0.915839   -0.009876    0.045779   -0.033382    0.003072
H     0.251109   -1.941803   -0.962463   -0.179791   -1.009377    0.996244
13
* Frequency(30) 1529.2709
C     1.621930    0.386321    0.010585   -0.002186    0.050921   -0.004623
C     1.540703   -0.910027    0.119184   -0.004966   -0.026881    0.004004
N     0.224069   -1.627995    0.148350    0.030996    0.127054   -0.015632
C    -1.034239   -0.761547    0.035060   -0.019872    0.028978    0.000543
N    -0.811045    0.582353   -0.072057   -0.000446   -0.015131    0.001143
C     0.425362    1.261550   -0.096139   -0.006633    0.000260   -0.000159
O    -2.088897   -1.327903    0.055984    0.011575    0.003415   -0.000187
O     0.449828    2.465943   -0.197740    0.003536   -0.004456    0.000612
H     2.377605   -1.604670    0.201665    0.013179   -0.008515   -0.000424
H     0.192900   -1.770388    1.279603   -0.156007   -1.124455   -0.800950
H    -1.652582    1.160459   -0.147111    0.013523    0.002142   -0.000545
H     2.574833    0.915521   -0.009847    0.045779   -0.033382    0.003072
H     0.249399   -1.951407   -0.952985   -0.179791   -1.009377    0.996244
13
* Frequency(30) 1529.2709
C     1.621829    0.388678    0.010371   -0.002186    0.050921   -0.004623
C     1.540473   -0.911271    0.119369   -0.004966   -0.026881    0.004004
N     0.225504   -1.622115    0.147626    0.030996    0.127054   -0.015632
C    -1.035159   -0.760206    0.035085   -0.019872    0.028978    0.000543
N    -0.811066    0.581652   -0.072004   -0.000446   -0.015131    0.001143
C     0.425055    1.261562   -0.096147   -0.006633    0.000260   -0.000159
O    -2.088361   -1.327745    0.055975    0.011575    0.003415   -0.000187
O     0.449991    2.465736   -0.197712    0.003536   -0.004456    0.000612
H     2.378215   -1.605064    0.201645    0.013179   -0.008515   -0.000424
H     0.185680   -1.822430    1.242534   -0.156007   -1.124455   -0.800950
H    -1.651957    1.160559   -0.147136    0.013523    0.002142   -0.000545
H     2.576952    0.913976   -0.009705    0.045779   -0.033382    0.003072
H     0.241078   -1.998123   -0.906877   -0.179791   -1.009377    0.996244
13
* Frequency(30) 1529.2709
C     1.621658    0.392651    0.010010   -0.002186    0.050921   -0.004623
C     1.540086   -0.913369    0.119682   -0.004966   -0.026881    0.004004
N     0.227923   -1.612200    0.146406    0.030996    0.127054   -0.015632
C    -1.036710   -0.757944    0.035128   -0.019872    0.028978    0.000543
N    -0.811100    0.580472   -0.071914   -0.000446   -0.015131    0.001143
C     0.424537    1.261582   -0.096159   -0.006633    0.000260   -0.000159
O    -2.087458   -1.327479    0.055961    0.011575    0.003415   -0.000187
O     0.450267    2.465389   -0.197664    0.003536   -0.004456    0.000612
H     2.379244   -1.605728    0.201612    0.013179   -0.008515   -0.000424
H     0.173506   -1.910175    1.180033   -0.156007   -1.124455   -0.800950
H    -1.650901    1.160726   -0.147178    0.013523    0.002142   -0.000545
H     2.580524    0.911371   -0.009465    0.045779   -0.033382    0.003072
H     0.227048   -2.076888   -0.829136   -0.179791   -1.009377    0.996244
13
* Frequency(30) 1529.2709
C     1.621437    0.397811    0.009541   -0.002186    0.050921   -0.004623
C     1.539582   -0.916092    0.120088   -0.004966   -0.026881    0.004004
N     0.231063   -1.599326    0.144823    0.030996    0.127054   -0.015632
C    -1.038724   -0.755008    0.035183   -0.019872    0.028978    0.000543
N    -0.811146    0.578939   -0.071799   -0.000446   -0.015131    0.001143
C     0.423865    1.261609   -0.096175   -0.006633    0.000260   -0.000159
O    -2.086285   -1.327133    0.055942    0.011575    0.003415   -0.000187
O     0.450626    2.464937   -0.197602    0.003536   -0.004456    0.000612
H     2.380579   -1.606591    0.201569    0.013179   -0.008515   -0.000424
H     0.157698   -2.024116    1.098873   -0.156007   -1.124455   -0.800950
H    -1.649531    1.160943   -0.147234    0.013523    0.002142   -0.000545
H     2.585163    0.907988   -0.009154    0.045779   -0.033382    0.003072
H     0.208830   -2.179168   -0.728187   -0.179791   -1.009377    0.996244
13
* Frequency(30) 1529.2709
C     1.621188    0.403598    0.009016   -0.002186    0.050921   -0.004623
C     1.539018   -0.919147    0.120543   -0.004966   -0.026881    0.004004
N     0.234586   -1.584887    0.143046    0.030996    0.127054   -0.015632
C    -1.040982   -0.751715    0.035244   -0.019872    0.028978    0.000543
N    -0.811196    0.577219   -0.071669   -0.000446   -0.015131    0.001143
C     0.423111    1.261638   -0.096194   -0.006633    0.000260   -0.000159
O    -2.084970   -1.326745    0.055920    0.011575    0.003415   -0.000187
O     0.451027    2.464431   -0.197533    0.003536   -0.004456    0.000612
H     2.382077   -1.607559    0.201521    0.013179   -0.008515   -0.000424
H     0.139969   -2.151905    1.007849   -0.156007   -1.124455   -0.800950
H    -1.647994    1.161186   -0.147295    0.013523    0.002142   -0.000545
H     2.590366    0.904195   -0.008805    0.045779   -0.033382    0.003072
H     0.188398   -2.293879   -0.614969   -0.179791   -1.009377    0.996244
