13
* (null), Energy   -1000.0000000
C     1.621188    0.403598    0.009016   -0.096172    0.134211   -0.014466
C     1.539018   -0.919147    0.120543   -0.015741    0.025452    0.004580
N     0.234586   -1.584887    0.143046    0.265267   -0.030247    0.012216
C    -1.040982   -0.751715    0.035244    0.075705   -0.114386    0.000449
N    -0.811196    0.577219   -0.071669   -0.115230   -0.033478    0.001386
C     0.423111    1.261638   -0.096194    0.135868    0.001670    0.003800
O    -2.084970   -1.326745    0.055920   -0.045842    0.015792   -0.000708
O     0.451027    2.464431   -0.197533   -0.007050   -0.005268    0.000183
H     2.382077   -1.607559    0.201521   -0.546508   -0.612219    0.031368
H     0.139969   -2.151905    1.007849   -1.031576    0.158798   -0.005090
H    -1.647994    1.161186   -0.147295    0.325240    0.596991   -0.049875
H     2.590366    0.904195   -0.008805    0.060339   -0.172569    0.010322
H     0.188398   -2.293879   -0.614969   -1.240401    0.188060   -0.100232
13
* Frequency(28) 1404.2966
C     1.610259    0.418851    0.007372   -0.096172    0.134211   -0.014466
C     1.537229   -0.916255    0.121063   -0.015741    0.025452    0.004580
N     0.264732   -1.588324    0.144434    0.265267   -0.030247    0.012216
C    -1.032378   -0.764714    0.035295    0.075705   -0.114386    0.000449
N    -0.824292    0.573414   -0.071511   -0.115230   -0.033478    0.001386
C     0.438552    1.261828   -0.095762    0.135868    0.001670    0.003800
O    -2.090179   -1.324950    0.055840   -0.045842    0.015792   -0.000708
O     0.450226    2.463832   -0.197512   -0.007050   -0.005268    0.000183
H     2.319969   -1.677134    0.205085   -0.546508   -0.612219    0.031368
H     0.022736   -2.133858    1.007270   -1.031576    0.158798   -0.005090
H    -1.611032    1.229031   -0.152964    0.325240    0.596991   -0.049875
H     2.597223    0.884583   -0.007632    0.060339   -0.172569    0.010322
H     0.047433   -2.272507   -0.626360   -1.240401    0.188060   -0.100232
13
* Frequency(28) 1404.2966
C     1.600514    0.432450    0.005906   -0.096172    0.134211   -0.014466
C     1.535634   -0.913676    0.121527   -0.015741    0.025452    0.004580
N     0.291611   -1.591389    0.145672    0.265267   -0.030247    0.012216
C    -1.024707   -0.776305    0.035341    0.075705   -0.114386    0.000449
N    -0.835968    0.570022   -0.071371   -0.115230   -0.033478    0.001386
C     0.452319    1.261997   -0.095377    0.135868    0.001670    0.003800
O    -2.094825   -1.323350    0.055768   -0.045842    0.015792   -0.000708
O     0.449512    2.463298   -0.197494   -0.007050   -0.005268    0.000183
H     2.264592   -1.739170    0.208264   -0.546508   -0.612219    0.031368
H    -0.081794   -2.117767    1.006755   -1.031576    0.158798   -0.005090
H    -1.578076    1.289524   -0.158017    0.325240    0.596991   -0.049875
H     2.603337    0.867097   -0.006586    0.060339   -0.172569    0.010322
H    -0.078257   -2.253451   -0.636516   -1.240401    0.188060   -0.100232
13
* Frequency(28) 1404.2966
C     1.593009    0.442923    0.004777   -0.096172    0.134211   -0.014466
C     1.534406   -0.911690    0.121885   -0.015741    0.025452    0.004580
N     0.312311   -1.593749    0.146626    0.265267   -0.030247    0.012216
C    -1.018800   -0.785231    0.035376    0.075705   -0.114386    0.000449
N    -0.844960    0.567410   -0.071263   -0.115230   -0.033478    0.001386
C     0.462922    1.262128   -0.095080    0.135868    0.001670    0.003800
O    -2.098402   -1.322118    0.055713   -0.045842    0.015792   -0.000708
O     0.448962    2.462887   -0.197479   -0.007050   -0.005268    0.000183
H     2.221946   -1.786944    0.210712   -0.546508   -0.612219    0.031368
H    -0.162291   -2.105375    1.006357   -1.031576    0.158798   -0.005090
H    -1.552696    1.336109   -0.161909    0.325240    0.596991   -0.049875
H     2.608046    0.853631   -0.005780    0.060339   -0.172569    0.010322
H    -0.175050   -2.238776   -0.644337   -1.240401    0.188060   -0.100232
13
* Frequency(28) 1404.2966
C     1.588558    0.449135    0.004108   -0.096172    0.134211   -0.014466
C     1.533677   -0.910512    0.122097   -0.015741    0.025452    0.004580
N     0.324588   -1.595149    0.147191    0.265267   -0.030247    0.012216
C    -1.015296   -0.790525    0.035397    0.075705   -0.114386    0.000449
N    -0.850293    0.565860   -0.071198   -0.115230   -0.033478    0.001386
C     0.469210    1.262205   -0.094904    0.135868    0.001670    0.003800
O    -2.100524   -1.321387    0.055680   -0.045842    0.015792   -0.000708
O     0.448635    2.462643   -0.197471   -0.007050   -0.005268    0.000183
H     2.196652   -1.815279    0.212163   -0.546508   -0.612219    0.031368
H    -0.210035   -2.098026    1.006122   -1.031576    0.158798   -0.005090
H    -1.537643    1.363739   -0.164218    0.325240    0.596991   -0.049875
H     2.610838    0.845644   -0.005303    0.060339   -0.172569    0.010322
H    -0.232458   -2.230072   -0.648976   -1.240401    0.188060   -0.100232
13
* Frequency(28) 1404.2966
C     1.587643    0.450411    0.003970   -0.096172    0.134211   -0.014466
C     1.533528   -0.910269    0.122140   -0.015741    0.025452    0.004580
N     0.327112   -1.595437    0.147307    0.265267   -0.030247    0.012216
C    -1.014576   -0.791613    0.035401    0.075705   -0.114386    0.000449
N    -0.851389    0.565542   -0.071185   -0.115230   -0.033478    0.001386
C     0.470503    1.262221   -0.094868    0.135868    0.001670    0.003800
O    -2.100960   -1.321236    0.055673   -0.045842    0.015792   -0.000708
O     0.448568    2.462593   -0.197469   -0.007050   -0.005268    0.000183
H     2.191453   -1.821103    0.212462   -0.546508   -0.612219    0.031368
H    -0.219849   -2.096515    1.006073   -1.031576    0.158798   -0.005090
H    -1.534549    1.369419   -0.164692    0.325240    0.596991   -0.049875
H     2.611412    0.844002   -0.005204    0.060339   -0.172569    0.010322
H    -0.244260   -2.228283   -0.649930   -1.240401    0.188060   -0.100232
13
* Frequency(28) 1404.2966
C     1.590363    0.446615    0.004379   -0.096172    0.134211   -0.014466
C     1.533973   -0.910989    0.122011   -0.015741    0.025452    0.004580
N     0.319609   -1.594582    0.146962    0.265267   -0.030247    0.012216
C    -1.016717   -0.788378    0.035388    0.075705   -0.114386    0.000449
N    -0.848130    0.566488   -0.071224   -0.115230   -0.033478    0.001386
C     0.466660    1.262174   -0.094976    0.135868    0.001670    0.003800
O    -2.099663   -1.321683    0.055693   -0.045842    0.015792   -0.000708
O     0.448768    2.462742   -0.197474   -0.007050   -0.005268    0.000183
H     2.206910   -1.803788    0.211575   -0.546508   -0.612219    0.031368
H    -0.190672   -2.101006    1.006217   -1.031576    0.158798   -0.005090
H    -1.543748    1.352534   -0.163281    0.325240    0.596991   -0.049875
H     2.609706    0.848883   -0.005496    0.060339   -0.172569    0.010322
H    -0.209176   -2.233602   -0.647095   -1.240401    0.188060   -0.100232
13
* Frequency(28) 1404.2966
C     1.596423    0.438158    0.005291   -0.096172    0.134211   -0.014466
C     1.534965   -0.912593    0.121722   -0.015741    0.025452    0.004580
N     0.302893   -1.592676    0.146192    0.265267   -0.030247    0.012216
C    -1.021488   -0.781169    0.035360    0.075705   -0.114386    0.000449
N    -0.840868    0.568598   -0.071312   -0.115230   -0.033478    0.001386
C     0.458098    1.262068   -0.095215    0.135868    0.001670    0.003800
O    -2.096774   -1.322678    0.055738   -0.045842    0.015792   -0.000708
O     0.449212    2.463074   -0.197486   -0.007050   -0.005268    0.000183
H     2.241349   -1.765207    0.209598   -0.546508   -0.612219    0.031368
H    -0.125665   -2.111013    1.006538   -1.031576    0.158798   -0.005090
H    -1.564244    1.314913   -0.160138    0.325240    0.596991   -0.049875
H     2.605903    0.859758   -0.006147    0.060339   -0.172569    0.010322
H    -0.131010   -2.245453   -0.640779   -1.240401    0.188060   -0.100232
13
* Frequency(28) 1404.2966
C     1.605168    0.425955    0.006606   -0.096172    0.134211   -0.014466
C     1.536396   -0.914907    0.121306   -0.015741    0.025452    0.004580
N     0.278774   -1.589925    0.145081    0.265267   -0.030247    0.012216
C    -1.028371   -0.770769    0.035319    0.075705   -0.114386    0.000449
N    -0.830391    0.571642   -0.071438   -0.115230   -0.033478    0.001386
C     0.445744    1.261916   -0.095561    0.135868    0.001670    0.003800
O    -2.092606   -1.324114    0.055802   -0.045842    0.015792   -0.000708
O     0.449853    2.463553   -0.197502   -0.007050   -0.005268    0.000183
H     2.291039   -1.709543    0.206746   -0.546508   -0.612219    0.031368
H    -0.031873   -2.125452    1.007001   -1.031576    0.158798   -0.005090
H    -1.593815    1.260634   -0.155604    0.325240    0.596991   -0.049875
H     2.600417    0.875448   -0.007085    0.060339   -0.172569    0.010322
H    -0.018230   -2.262551   -0.631666   -1.240401    0.188060   -0.100232
13
* Frequency(28) 1404.2966
C     1.615648    0.411330    0.008183   -0.096172    0.134211   -0.014466
C     1.538111   -0.917681    0.120807   -0.015741    0.025452    0.004580
N     0.249867   -1.586629    0.143750    0.265267   -0.030247    0.012216
C    -1.036621   -0.758304    0.035270    0.075705   -0.114386    0.000449
N    -0.817835    0.575290   -0.071589   -0.115230   -0.033478    0.001386
C     0.430938    1.261734   -0.095975    0.135868    0.001670    0.003800
O    -2.087611   -1.325835    0.055880   -0.045842    0.015792   -0.000708
O     0.450621    2.464127   -0.197522   -0.007050   -0.005268    0.000183
H     2.350594   -1.642828    0.203328   -0.546508   -0.612219    0.031368
H     0.080542   -2.142756    1.007556   -1.031576    0.158798   -0.005090
H    -1.629258    1.195578   -0.150169    0.325240    0.596991   -0.049875
H     2.593842    0.894253   -0.008210    0.060339   -0.172569    0.010322
H     0.116940   -2.283045   -0.620743   -1.240401    0.188060   -0.100232
13
* Frequency(28) 1404.2966
C     1.626728    0.395867    0.009849   -0.096172    0.134211   -0.014466
C     1.539925   -0.920613    0.120279   -0.015741    0.025452    0.004580
N     0.219304   -1.583144    0.142342    0.265267   -0.030247    0.012216
C    -1.045343   -0.745125    0.035219    0.075705   -0.114386    0.000449
N    -0.804558    0.579148   -0.071749   -0.115230   -0.033478    0.001386
C     0.415284    1.261542   -0.096412    0.135868    0.001670    0.003800
O    -2.082329   -1.327655    0.055961   -0.045842    0.015792   -0.000708
O     0.451434    2.464734   -0.197543   -0.007050   -0.005268    0.000183
H     2.413560   -1.572290    0.199714   -0.546508   -0.612219    0.031368
H     0.199396   -2.161053    1.008142   -1.031576    0.158798   -0.005090
H    -1.666731    1.126795   -0.144422    0.325240    0.596991   -0.049875
H     2.586890    0.914136   -0.009399    0.060339   -0.172569    0.010322
H     0.259855   -2.304712   -0.609195   -1.240401    0.188060   -0.100232
13
* Frequency(28) 1404.2966
C     1.637209    0.381241    0.011426   -0.096172    0.134211   -0.014466
C     1.541640   -0.923387    0.119780   -0.015741    0.025452    0.004580
N     0.190397   -1.579848    0.141011    0.265267   -0.030247    0.012216
C    -1.053593   -0.732660    0.035170    0.075705   -0.114386    0.000449
N    -0.792001    0.582796   -0.071900   -0.115230   -0.033478    0.001386
C     0.400478    1.261360   -0.096827    0.135868    0.001670    0.003800
O    -2.077333   -1.329376    0.056038   -0.045842    0.015792   -0.000708
O     0.452202    2.465308   -0.197563   -0.007050   -0.005268    0.000183
H     2.473115   -1.505574    0.196295   -0.546508   -0.612219    0.031368
H     0.311810   -2.178357    1.008697   -1.031576    0.158798   -0.005090
H    -1.702173    1.061738   -0.138987    0.325240    0.596991   -0.049875
H     2.580314    0.932942   -0.010524    0.060339   -0.172569    0.010322
H     0.395026   -2.325206   -0.598272   -1.240401    0.188060   -0.100232
13
* Frequency(28) 1404.2966
C     1.645953    0.369038    0.012741   -0.096172    0.134211   -0.014466
C     1.543071   -0.925701    0.119363   -0.015741    0.025452    0.004580
N     0.166279   -1.577098    0.139900    0.265267   -0.030247    0.012216
C    -1.060476   -0.722260    0.035129    0.075705   -0.114386    0.000449
N    -0.781524    0.585840   -0.072026   -0.115230   -0.033478    0.001386
C     0.388125    1.261208   -0.097172    0.135868    0.001670    0.003800
O    -2.073165   -1.330811    0.056103   -0.045842    0.015792   -0.000708
O     0.452843    2.465787   -0.197580   -0.007050   -0.005268    0.000183
H     2.522805   -1.449910    0.193443   -0.546508   -0.612219    0.031368
H     0.405603   -2.192796    1.009159   -1.031576    0.158798   -0.005090
H    -1.731744    1.007459   -0.134453    0.325240    0.596991   -0.049875
H     2.574828    0.948632   -0.011463    0.060339   -0.172569    0.010322
H     0.507805   -2.342305   -0.589159   -1.240401    0.188060   -0.100232
13
* Frequency(28) 1404.2966
C     1.652013    0.360581    0.013653   -0.096172    0.134211   -0.014466
C     1.544063   -0.927305    0.119075   -0.015741    0.025452    0.004580
N     0.149562   -1.575192    0.139131    0.265267   -0.030247    0.012216
C    -1.065247   -0.715052    0.035101    0.075705   -0.114386    0.000449
N    -0.774263    0.587950   -0.072113   -0.115230   -0.033478    0.001386
C     0.379563    1.261103   -0.097412    0.135868    0.001670    0.003800
O    -2.070276   -1.331807    0.056147   -0.045842    0.015792   -0.000708
O     0.453287    2.466119   -0.197591   -0.007050   -0.005268    0.000183
H     2.557244   -1.411330    0.191467   -0.546508   -0.612219    0.031368
H     0.470610   -2.202803    1.009480   -1.031576    0.158798   -0.005090
H    -1.752240    0.969838   -0.131310    0.325240    0.596991   -0.049875
H     2.571026    0.959507   -0.012113    0.060339   -0.172569    0.010322
H     0.585972   -2.354156   -0.582843   -1.240401    0.188060   -0.100232
13
* Frequency(28) 1404.2966
C     1.654734    0.356785    0.014062   -0.096172    0.134211   -0.014466
C     1.544508   -0.928025    0.118945   -0.015741    0.025452    0.004580
N     0.142060   -1.574337    0.138785    0.265267   -0.030247    0.012216
C    -1.067388   -0.711816    0.035088    0.075705   -0.114386    0.000449
N    -0.771004    0.588896   -0.072152   -0.115230   -0.033478    0.001386
C     0.375720    1.261056   -0.097519    0.135868    0.001670    0.003800
O    -2.068980   -1.332253    0.056167   -0.045842    0.015792   -0.000708
O     0.453487    2.466268   -0.197597   -0.007050   -0.005268    0.000183
H     2.572701   -1.394014    0.190579   -0.546508   -0.612219    0.031368
H     0.499787   -2.207294    1.009624   -1.031576    0.158798   -0.005090
H    -1.761439    0.952953   -0.129899    0.325240    0.596991   -0.049875
H     2.569319    0.964388   -0.012405    0.060339   -0.172569    0.010322
H     0.621055   -2.359475   -0.580008   -1.240401    0.188060   -0.100232
13
* Frequency(28) 1404.2966
C     1.653818    0.358062    0.013924   -0.096172    0.134211   -0.014466
C     1.544359   -0.927783    0.118989   -0.015741    0.025452    0.004580
N     0.144584   -1.574624    0.138901    0.265267   -0.030247    0.012216
C    -1.066668   -0.712905    0.035092    0.075705   -0.114386    0.000449
N    -0.772100    0.588578   -0.072139   -0.115230   -0.033478    0.001386
C     0.377012    1.261071   -0.097483    0.135868    0.001670    0.003800
O    -2.069416   -1.332103    0.056161   -0.045842    0.015792   -0.000708
O     0.453419    2.466218   -0.197595   -0.007050   -0.005268    0.000183
H     2.567502   -1.399839    0.190878   -0.546508   -0.612219    0.031368
H     0.489972   -2.205783    1.009576   -1.031576    0.158798   -0.005090
H    -1.758345    0.958633   -0.130373    0.325240    0.596991   -0.049875
H     2.569893    0.962746   -0.012307    0.060339   -0.172569    0.010322
H     0.609253   -2.357685   -0.580961   -1.240401    0.188060   -0.100232
13
* Frequency(28) 1404.2966
C     1.649367    0.364273    0.013255   -0.096172    0.134211   -0.014466
C     1.543630   -0.926605    0.119201   -0.015741    0.025452    0.004580
N     0.156861   -1.576024    0.139467    0.265267   -0.030247    0.012216
C    -1.063164   -0.718199    0.035113    0.075705   -0.114386    0.000449
N    -0.777433    0.587028   -0.072075   -0.115230   -0.033478    0.001386
C     0.383301    1.261149   -0.097307    0.135868    0.001670    0.003800
O    -2.071538   -1.331372    0.056128   -0.045842    0.015792   -0.000708
O     0.453093    2.465974   -0.197586   -0.007050   -0.005268    0.000183
H     2.542208   -1.428174    0.192330   -0.546508   -0.612219    0.031368
H     0.442229   -2.198434    1.009340   -1.031576    0.158798   -0.005090
H    -1.743292    0.986263   -0.132682    0.325240    0.596991   -0.049875
H     2.572686    0.954759   -0.011829    0.060339   -0.172569    0.010322
H     0.551845   -2.348982   -0.585600   -1.240401    0.188060   -0.100232
13
* Frequency(28) 1404.2966
C     1.641863    0.374746    0.012126   -0.096172    0.134211   -0.014466
C     1.542402   -0.924619    0.119558   -0.015741    0.025452    0.004580
N     0.177560   -1.578384    0.140420    0.265267   -0.030247    0.012216
C    -1.057257   -0.727125    0.035148    0.075705   -0.114386    0.000449
N    -0.786425    0.584416   -0.071967   -0.115230   -0.033478    0.001386
C     0.393903    1.261279   -0.097010    0.135868    0.001670    0.003800
O    -2.075115   -1.330140    0.056073   -0.045842    0.015792   -0.000708
O     0.452543    2.465563   -0.197572   -0.007050   -0.005268    0.000183
H     2.499562   -1.475947    0.194777   -0.546508   -0.612219    0.031368
H     0.361731   -2.186042    1.008943   -1.031576    0.158798   -0.005090
H    -1.717912    1.032848   -0.136574    0.325240    0.596991   -0.049875
H     2.577394    0.941293   -0.011024    0.060339   -0.172569    0.010322
H     0.455052   -2.334307   -0.593422   -1.240401    0.188060   -0.100232
13
* Frequency(28) 1404.2966
C     1.632118    0.388346    0.010660   -0.096172    0.134211   -0.014466
C     1.540807   -0.922040    0.120022   -0.015741    0.025452    0.004580
N     0.204440   -1.581449    0.141658    0.265267   -0.030247    0.012216
C    -1.049585   -0.738715    0.035193    0.075705   -0.114386    0.000449
N    -0.798101    0.581024   -0.071826   -0.115230   -0.033478    0.001386
C     0.407670    1.261448   -0.096625    0.135868    0.001670    0.003800
O    -2.079760   -1.328540    0.056001   -0.045842    0.015792   -0.000708
O     0.451829    2.465029   -0.197554   -0.007050   -0.005268    0.000183
H     2.444185   -1.537983    0.197956   -0.546508   -0.612219    0.031368
H     0.257202   -2.169951    1.008427   -1.031576    0.158798   -0.005090
H    -1.684956    1.093341   -0.141627    0.325240    0.596991   -0.049875
H     2.583509    0.923806   -0.009978    0.060339   -0.172569    0.010322
H     0.329363   -2.315251   -0.603578   -1.240401    0.188060   -0.100232
13
* Frequency(28) 1404.2966
C     1.621188    0.403598    0.009016   -0.096172    0.134211   -0.014466
C     1.539018   -0.919147    0.120543   -0.015741    0.025452    0.004580
N     0.234586   -1.584887    0.143046    0.265267   -0.030247    0.012216
C    -1.040982   -0.751715    0.035244    0.075705   -0.114386    0.000449
N    -0.811196    0.577219   -0.071669   -0.115230   -0.033478    0.001386
C     0.423111    1.261638   -0.096194    0.135868    0.001670    0.003800
O    -2.084970   -1.326745    0.055920   -0.045842    0.015792   -0.000708
O     0.451027    2.464431   -0.197533   -0.007050   -0.005268    0.000183
H     2.382077   -1.607559    0.201521   -0.546508   -0.612219    0.031368
H     0.139969   -2.151905    1.007849   -1.031576    0.158798   -0.005090
H    -1.647994    1.161186   -0.147295    0.325240    0.596991   -0.049875
H     2.590366    0.904195   -0.008805    0.060339   -0.172569    0.010322
H     0.188398   -2.293879   -0.614969   -1.240401    0.188060   -0.100232
