13
* (null), Energy   -1000.0000000
C     1.365855    0.533997   -0.017795    0.130935    0.065315   -0.002329
C     1.281863   -0.788655    0.093257   -0.073413    0.057191   -0.006703
N    -0.021011   -1.450395    0.118437    0.000392    0.000659   -0.000088
C    -1.289878   -0.622329    0.007801    0.001093   -0.000159    0.000045
N    -1.064188    0.706802   -0.097341   -0.000652    0.000173   -0.000037
C     0.168081    1.391376   -0.119566   -0.003435    0.001850   -0.000246
O    -2.334795   -1.198357    0.024143   -0.000055    0.000000   -0.000002
O     0.193513    2.595440   -0.217241    0.000448   -0.000701    0.000064
H     2.123010   -1.478478    0.173803    0.840735   -0.682922    0.079186
H    -0.114939   -2.012404    0.984263   -0.007605   -0.015726    0.022858
H    -1.901448    1.289086   -0.172072   -0.001181   -0.000082   -0.000045
H     2.334895    1.034094   -0.036100   -1.485607   -0.762183    0.028209
H    -0.071619   -2.162707   -0.633029   -0.006478   -0.019408   -0.019447
13
* Frequency(34) 3235.2363
C     1.380735    0.541420   -0.018060    0.130935    0.065315   -0.002329
C     1.273520   -0.782156    0.092495   -0.073413    0.057191   -0.006703
N    -0.020966   -1.450320    0.118427    0.000392    0.000659   -0.000088
C    -1.289753   -0.622348    0.007806    0.001093   -0.000159    0.000045
N    -1.064262    0.706821   -0.097345   -0.000652    0.000173   -0.000037
C     0.167691    1.391586   -0.119594   -0.003435    0.001850   -0.000246
O    -2.334801   -1.198357    0.024143   -0.000055    0.000000   -0.000002
O     0.193564    2.595361   -0.217234    0.000448   -0.000701    0.000064
H     2.218555   -1.556088    0.182803    0.840735   -0.682922    0.079186
H    -0.115803   -2.014191    0.986861   -0.007605   -0.015726    0.022858
H    -1.901582    1.289077   -0.172078   -0.001181   -0.000082   -0.000045
H     2.166063    0.947476   -0.032894   -1.485607   -0.762183    0.028209
H    -0.072355   -2.164912   -0.635239   -0.006478   -0.019408   -0.019447
13
* Frequency(34) 3235.2363
C     1.394003    0.548038   -0.018296    0.130935    0.065315   -0.002329
C     1.266081   -0.776361    0.091816   -0.073413    0.057191   -0.006703
N    -0.020926   -1.450253    0.118418    0.000392    0.000659   -0.000088
C    -1.289643   -0.622364    0.007811    0.001093   -0.000159    0.000045
N    -1.064328    0.706839   -0.097349   -0.000652    0.000173   -0.000037
C     0.167343    1.391774   -0.119619   -0.003435    0.001850   -0.000246
O    -2.334807   -1.198357    0.024143   -0.000055    0.000000   -0.000002
O     0.193609    2.595290   -0.217227    0.000448   -0.000701    0.000064
H     2.303747   -1.625289    0.190827    0.840735   -0.682922    0.079186
H    -0.116573   -2.015785    0.989177   -0.007605   -0.015726    0.022858
H    -1.901702    1.289068   -0.172082   -0.001181   -0.000082   -0.000045
H     2.015527    0.870244   -0.030036   -1.485607   -0.762183    0.028209
H    -0.073012   -2.166879   -0.637209   -0.006478   -0.019408   -0.019447
13
* Frequency(34) 3235.2363
C     1.404220    0.553135   -0.018478    0.130935    0.065315   -0.002329
C     1.260352   -0.771898    0.091293   -0.073413    0.057191   -0.006703
N    -0.020896   -1.450202    0.118412    0.000392    0.000659   -0.000088
C    -1.289557   -0.622376    0.007814    0.001093   -0.000159    0.000045
N    -1.064379    0.706852   -0.097352   -0.000652    0.000173   -0.000037
C     0.167075    1.391918   -0.119638   -0.003435    0.001850   -0.000246
O    -2.334811   -1.198357    0.024143   -0.000055    0.000000   -0.000002
O     0.193644    2.595235   -0.217222    0.000448   -0.000701    0.000064
H     2.369352   -1.678580    0.197006    0.840735   -0.682922    0.079186
H    -0.117167   -2.017012    0.990961   -0.007605   -0.015726    0.022858
H    -1.901794    1.289062   -0.172086   -0.001181   -0.000082   -0.000045
H     1.899600    0.810768   -0.027834   -1.485607   -0.762183    0.028209
H    -0.073517   -2.168393   -0.638727   -0.006478   -0.019408   -0.019447
13
* Frequency(34) 3235.2363
C     1.410280    0.556158   -0.018586    0.130935    0.065315   -0.002329
C     1.256955   -0.769251    0.090982   -0.073413    0.057191   -0.006703
N    -0.020878   -1.450171    0.118407    0.000392    0.000659   -0.000088
C    -1.289507   -0.622384    0.007817    0.001093   -0.000159    0.000045
N    -1.064409    0.706860   -0.097354   -0.000652    0.000173   -0.000037
C     0.166916    1.392004   -0.119650   -0.003435    0.001850   -0.000246
O    -2.334814   -1.198357    0.024142   -0.000055    0.000000   -0.000002
O     0.193665    2.595202   -0.217219    0.000448   -0.000701    0.000064
H     2.408263   -1.710186    0.200671    0.840735   -0.682922    0.079186
H    -0.117519   -2.017740    0.992019   -0.007605   -0.015726    0.022858
H    -1.901848    1.289058   -0.172088   -0.001181   -0.000082   -0.000045
H     1.830843    0.775493   -0.026529   -1.485607   -0.762183    0.028209
H    -0.073817   -2.169292   -0.639627   -0.006478   -0.019408   -0.019447
13
* Frequency(34) 3235.2363
C     1.411526    0.556779   -0.018608    0.130935    0.065315   -0.002329
C     1.256256   -0.768707    0.090919   -0.073413    0.057191   -0.006703
N    -0.020874   -1.450165    0.118407    0.000392    0.000659   -0.000088
C    -1.289496   -0.622385    0.007817    0.001093   -0.000159    0.000045
N    -1.064415    0.706862   -0.097354   -0.000652    0.000173   -0.000037
C     0.166883    1.392021   -0.119652   -0.003435    0.001850   -0.000246
O    -2.334814   -1.198357    0.024142   -0.000055    0.000000   -0.000002
O     0.193669    2.595196   -0.217219    0.000448   -0.000701    0.000064
H     2.416262   -1.716684    0.201424    0.840735   -0.682922    0.079186
H    -0.117591   -2.017889    0.992236   -0.007605   -0.015726    0.022858
H    -1.901860    1.289057   -0.172088   -0.001181   -0.000082   -0.000045
H     1.816708    0.768241   -0.026260   -1.485607   -0.762183    0.028209
H    -0.073879   -2.169476   -0.639812   -0.006478   -0.019408   -0.019447
13
* Frequency(34) 3235.2363
C     1.407822    0.554932   -0.018542    0.130935    0.065315   -0.002329
C     1.258332   -0.770324    0.091108   -0.073413    0.057191   -0.006703
N    -0.020885   -1.450184    0.118409    0.000392    0.000659   -0.000088
C    -1.289527   -0.622381    0.007816    0.001093   -0.000159    0.000045
N    -1.064397    0.706857   -0.097353   -0.000652    0.000173   -0.000037
C     0.166980    1.391969   -0.119645   -0.003435    0.001850   -0.000246
O    -2.334813   -1.198357    0.024143   -0.000055    0.000000   -0.000002
O     0.193656    2.595216   -0.217221    0.000448   -0.000701    0.000064
H     2.392483   -1.697368    0.199184    0.840735   -0.682922    0.079186
H    -0.117376   -2.017445    0.991590   -0.007605   -0.015726    0.022858
H    -1.901826    1.289060   -0.172087   -0.001181   -0.000082   -0.000045
H     1.858727    0.789799   -0.027058   -1.485607   -0.762183    0.028209
H    -0.073695   -2.168927   -0.639262   -0.006478   -0.019408   -0.019447
13
* Frequency(34) 3235.2363
C     1.399571    0.550816   -0.018395    0.130935    0.065315   -0.002329
C     1.262959   -0.773928    0.091531   -0.073413    0.057191   -0.006703
N    -0.020910   -1.450225    0.118415    0.000392    0.000659   -0.000088
C    -1.289596   -0.622371    0.007813    0.001093   -0.000159    0.000045
N    -1.064356    0.706846   -0.097351   -0.000652    0.000173   -0.000037
C     0.167197    1.391852   -0.119630   -0.003435    0.001850   -0.000246
O    -2.334809   -1.198357    0.024143   -0.000055    0.000000   -0.000002
O     0.193628    2.595260   -0.217225    0.000448   -0.000701    0.000064
H     2.339502   -1.654332    0.194194    0.840735   -0.682922    0.079186
H    -0.116897   -2.016454    0.990149   -0.007605   -0.015726    0.022858
H    -1.901752    1.289065   -0.172084   -0.001181   -0.000082   -0.000045
H     1.952346    0.837829   -0.028836   -1.485607   -0.762183    0.028209
H    -0.073287   -2.167704   -0.638036   -0.006478   -0.019408   -0.019447
13
* Frequency(34) 3235.2363
C     1.387666    0.544878   -0.018183    0.130935    0.065315   -0.002329
C     1.269634   -0.779128    0.092140   -0.073413    0.057191   -0.006703
N    -0.020945   -1.450285    0.118423    0.000392    0.000659   -0.000088
C    -1.289696   -0.622356    0.007809    0.001093   -0.000159    0.000045
N    -1.064296    0.706830   -0.097347   -0.000652    0.000173   -0.000037
C     0.167509    1.391684   -0.119607   -0.003435    0.001850   -0.000246
O    -2.334804   -1.198357    0.024143   -0.000055    0.000000   -0.000002
O     0.193587    2.595323   -0.217230    0.000448   -0.000701    0.000064
H     2.263061   -1.592240    0.186994    0.840735   -0.682922    0.079186
H    -0.116205   -2.015024    0.988071   -0.007605   -0.015726    0.022858
H    -1.901645    1.289072   -0.172080   -0.001181   -0.000082   -0.000045
H     2.087420    0.907128   -0.031401   -1.485607   -0.762183    0.028209
H    -0.072698   -2.165940   -0.636268   -0.006478   -0.019408   -0.019447
13
* Frequency(34) 3235.2363
C     1.373398    0.537760   -0.017930    0.130935    0.065315   -0.002329
C     1.277634   -0.785361    0.092871   -0.073413    0.057191   -0.006703
N    -0.020988   -1.450357    0.118432    0.000392    0.000659   -0.000088
C    -1.289815   -0.622339    0.007804    0.001093   -0.000159    0.000045
N    -1.064225    0.706812   -0.097343   -0.000652    0.000173   -0.000037
C     0.167883    1.391482   -0.119580   -0.003435    0.001850   -0.000246
O    -2.334798   -1.198357    0.024143   -0.000055    0.000000   -0.000002
O     0.193539    2.595400   -0.217237    0.000448   -0.000701    0.000064
H     2.171443   -1.517820    0.178365    0.840735   -0.682922    0.079186
H    -0.115377   -2.013310    0.985580   -0.007605   -0.015726    0.022858
H    -1.901516    1.289081   -0.172075   -0.001181   -0.000082   -0.000045
H     2.249312    0.990186   -0.034475   -1.485607   -0.762183    0.028209
H    -0.071992   -2.163825   -0.634149   -0.006478   -0.019408   -0.019447
13
* Frequency(34) 3235.2363
C     1.358312    0.530235   -0.017661    0.130935    0.065315   -0.002329
C     1.286092   -0.791950    0.093643   -0.073413    0.057191   -0.006703
N    -0.021033   -1.450433    0.118442    0.000392    0.000659   -0.000088
C    -1.289940   -0.622320    0.007799    0.001093   -0.000159    0.000045
N    -1.064150    0.706792   -0.097339   -0.000652    0.000173   -0.000037
C     0.168279    1.391269   -0.119552   -0.003435    0.001850   -0.000246
O    -2.334792   -1.198357    0.024143   -0.000055    0.000000   -0.000002
O     0.193487    2.595481   -0.217245    0.000448   -0.000701    0.000064
H     2.074577   -1.439136    0.169242    0.840735   -0.682922    0.079186
H    -0.114500   -2.011498    0.982947   -0.007605   -0.015726    0.022858
H    -1.901380    1.289091   -0.172070   -0.001181   -0.000082   -0.000045
H     2.420478    1.078002   -0.037725   -1.485607   -0.762183    0.028209
H    -0.071246   -2.161588   -0.631908   -0.006478   -0.019408   -0.019447
13
* Frequency(34) 3235.2363
C     1.344044    0.523117   -0.017407    0.130935    0.065315   -0.002329
C     1.294092   -0.798182    0.094373   -0.073413    0.057191   -0.006703
N    -0.021076   -1.450505    0.118452    0.000392    0.000659   -0.000088
C    -1.290060   -0.622303    0.007794    0.001093   -0.000159    0.000045
N    -1.064079    0.706773   -0.097335   -0.000652    0.000173   -0.000037
C     0.168653    1.391068   -0.119525   -0.003435    0.001850   -0.000246
O    -2.334786   -1.198357    0.024144   -0.000055    0.000000   -0.000002
O     0.193438    2.595557   -0.217252    0.000448   -0.000701    0.000064
H     1.982959   -1.364716    0.160612    0.840735   -0.682922    0.079186
H    -0.113672   -2.009784    0.980456   -0.007605   -0.015726    0.022858
H    -1.901251    1.289100   -0.172065   -0.001181   -0.000082   -0.000045
H     2.582370    1.161060   -0.040799   -1.485607   -0.762183    0.028209
H    -0.070540   -2.159473   -0.629789   -0.006478   -0.019408   -0.019447
13
* Frequency(34) 3235.2363
C     1.332139    0.517179   -0.017196    0.130935    0.065315   -0.002329
C     1.300767   -0.803382    0.094983   -0.073413    0.057191   -0.006703
N    -0.021112   -1.450565    0.118460    0.000392    0.000659   -0.000088
C    -1.290159   -0.622288    0.007789    0.001093   -0.000159    0.000045
N    -1.064020    0.706757   -0.097332   -0.000652    0.000173   -0.000037
C     0.168966    1.390900   -0.119503   -0.003435    0.001850   -0.000246
O    -2.334781   -1.198357    0.024144   -0.000055    0.000000   -0.000002
O     0.193397    2.595621   -0.217258    0.000448   -0.000701    0.000064
H     1.906518   -1.302623    0.153413    0.840735   -0.682922    0.079186
H    -0.112980   -2.008354    0.978377   -0.007605   -0.015726    0.022858
H    -1.901144    1.289107   -0.172061   -0.001181   -0.000082   -0.000045
H     2.717444    1.230359   -0.043364   -1.485607   -0.762183    0.028209
H    -0.069951   -2.157709   -0.628021   -0.006478   -0.019408   -0.019447
13
* Frequency(34) 3235.2363
C     1.323887    0.513063   -0.017049    0.130935    0.065315   -0.002329
C     1.305393   -0.806986    0.095405   -0.073413    0.057191   -0.006703
N    -0.021136   -1.450606    0.118465    0.000392    0.000659   -0.000088
C    -1.290228   -0.622278    0.007787    0.001093   -0.000159    0.000045
N    -1.063979    0.706746   -0.097329   -0.000652    0.000173   -0.000037
C     0.169182    1.390783   -0.119488   -0.003435    0.001850   -0.000246
O    -2.334777   -1.198357    0.024144   -0.000055    0.000000   -0.000002
O     0.193369    2.595665   -0.217262    0.000448   -0.000701    0.000064
H     1.853537   -1.259587    0.148423    0.840735   -0.682922    0.079186
H    -0.112501   -2.007363    0.976937   -0.007605   -0.015726    0.022858
H    -1.901070    1.289112   -0.172058   -0.001181   -0.000082   -0.000045
H     2.811063    1.278389   -0.045142   -1.485607   -0.762183    0.028209
H    -0.069543   -2.156486   -0.626796   -0.006478   -0.019408   -0.019447
13
* Frequency(34) 3235.2363
C     1.320184    0.511215   -0.016983    0.130935    0.065315   -0.002329
C     1.307470   -0.808604    0.095595   -0.073413    0.057191   -0.006703
N    -0.021147   -1.450625    0.118468    0.000392    0.000659   -0.000088
C    -1.290259   -0.622274    0.007785    0.001093   -0.000159    0.000045
N    -1.063960    0.706741   -0.097328   -0.000652    0.000173   -0.000037
C     0.169279    1.390731   -0.119481   -0.003435    0.001850   -0.000246
O    -2.334776   -1.198357    0.024144   -0.000055    0.000000   -0.000002
O     0.193357    2.595685   -0.217264    0.000448   -0.000701    0.000064
H     1.829758   -1.240271    0.146183    0.840735   -0.682922    0.079186
H    -0.112286   -2.006919    0.976290   -0.007605   -0.015726    0.022858
H    -1.901036    1.289115   -0.172057   -0.001181   -0.000082   -0.000045
H     2.853081    1.299947   -0.045939   -1.485607   -0.762183    0.028209
H    -0.069359   -2.155937   -0.626246   -0.006478   -0.019408   -0.019447
13
* Frequency(34) 3235.2363
C     1.321430    0.511837   -0.017005    0.130935    0.065315   -0.002329
C     1.306771   -0.808060    0.095531   -0.073413    0.057191   -0.006703
N    -0.021144   -1.450619    0.118467    0.000392    0.000659   -0.000088
C    -1.290248   -0.622275    0.007786    0.001093   -0.000159    0.000045
N    -1.063967    0.706743   -0.097329   -0.000652    0.000173   -0.000037
C     0.169247    1.390748   -0.119483   -0.003435    0.001850   -0.000246
O    -2.334776   -1.198357    0.024144   -0.000055    0.000000   -0.000002
O     0.193361    2.595678   -0.217263    0.000448   -0.000701    0.000064
H     1.837757   -1.246769    0.146936    0.840735   -0.682922    0.079186
H    -0.112358   -2.007068    0.976508   -0.007605   -0.015726    0.022858
H    -1.901047    1.289114   -0.172057   -0.001181   -0.000082   -0.000045
H     2.838946    1.292695   -0.045671   -1.485607   -0.762183    0.028209
H    -0.069421   -2.156121   -0.626431   -0.006478   -0.019408   -0.019447
13
* Frequency(34) 3235.2363
C     1.327490    0.514860   -0.017113    0.130935    0.065315   -0.002329
C     1.303374   -0.805413    0.095221   -0.073413    0.057191   -0.006703
N    -0.021126   -1.450588    0.118463    0.000392    0.000659   -0.000088
C    -1.290198   -0.622283    0.007788    0.001093   -0.000159    0.000045
N    -1.063997    0.706751   -0.097330   -0.000652    0.000173   -0.000037
C     0.169088    1.390834   -0.119494   -0.003435    0.001850   -0.000246
O    -2.334779   -1.198357    0.024144   -0.000055    0.000000   -0.000002
O     0.193382    2.595646   -0.217260    0.000448   -0.000701    0.000064
H     1.876668   -1.278376    0.150601    0.840735   -0.682922    0.079186
H    -0.112710   -2.007796    0.977566   -0.007605   -0.015726    0.022858
H    -1.901102    1.289110   -0.172059   -0.001181   -0.000082   -0.000045
H     2.770190    1.257420   -0.044366   -1.485607   -0.762183    0.028209
H    -0.069721   -2.157020   -0.627331   -0.006478   -0.019408   -0.019447
13
* Frequency(34) 3235.2363
C     1.337707    0.519956   -0.017295    0.130935    0.065315   -0.002329
C     1.297645   -0.800950    0.094698   -0.073413    0.057191   -0.006703
N    -0.021095   -1.450537    0.118456    0.000392    0.000659   -0.000088
C    -1.290112   -0.622295    0.007791    0.001093   -0.000159    0.000045
N    -1.064048    0.706765   -0.097333   -0.000652    0.000173   -0.000037
C     0.168820    1.390978   -0.119513   -0.003435    0.001850   -0.000246
O    -2.334783   -1.198357    0.024144   -0.000055    0.000000   -0.000002
O     0.193416    2.595591   -0.217255    0.000448   -0.000701    0.000064
H     1.942273   -1.331667    0.156780    0.840735   -0.682922    0.079186
H    -0.113304   -2.009023    0.979349   -0.007605   -0.015726    0.022858
H    -1.901194    1.289104   -0.172063   -0.001181   -0.000082   -0.000045
H     2.654262    1.197944   -0.042164   -1.485607   -0.762183    0.028209
H    -0.070226   -2.158534   -0.628848   -0.006478   -0.019408   -0.019447
13
* Frequency(34) 3235.2363
C     1.350975    0.526575   -0.017531    0.130935    0.065315   -0.002329
C     1.290206   -0.795155    0.094019   -0.073413    0.057191   -0.006703
N    -0.021055   -1.450470    0.118447    0.000392    0.000659   -0.000088
C    -1.290002   -0.622311    0.007796    0.001093   -0.000159    0.000045
N    -1.064114    0.706782   -0.097337   -0.000652    0.000173   -0.000037
C     0.168471    1.391166   -0.119538   -0.003435    0.001850   -0.000246
O    -2.334789   -1.198357    0.024143   -0.000055    0.000000   -0.000002
O     0.193462    2.595520   -0.217249    0.000448   -0.000701    0.000064
H     2.027465   -1.400867    0.164804    0.840735   -0.682922    0.079186
H    -0.114074   -2.010617    0.981666   -0.007605   -0.015726    0.022858
H    -1.901314    1.289095   -0.172067   -0.001181   -0.000082   -0.000045
H     2.503726    1.120712   -0.039306   -1.485607   -0.762183    0.028209
H    -0.070883   -2.160501   -0.630819   -0.006478   -0.019408   -0.019447
13
* Frequency(34) 3235.2363
C     1.365855    0.533997   -0.017795    0.130935    0.065315   -0.002329
C     1.281863   -0.788655    0.093257   -0.073413    0.057191   -0.006703
N    -0.021011   -1.450395    0.118437    0.000392    0.000659   -0.000088
C    -1.289878   -0.622329    0.007801    0.001093   -0.000159    0.000045
N    -1.064188    0.706802   -0.097341   -0.000652    0.000173   -0.000037
C     0.168081    1.391376   -0.119566   -0.003435    0.001850   -0.000246
O    -2.334795   -1.198357    0.024143   -0.000055    0.000000   -0.000002
O     0.193513    2.595440   -0.217241    0.000448   -0.000701    0.000064
H     2.123010   -1.478478    0.173803    0.840735   -0.682922    0.079186
H    -0.114939   -2.012404    0.984263   -0.007605   -0.015726    0.022858
H    -1.901448    1.289086   -0.172072   -0.001181   -0.000082   -0.000045
H     2.334895    1.034094   -0.036100   -1.485607   -0.762183    0.028209
H    -0.071619   -2.162707   -0.633029   -0.006478   -0.019408   -0.019447
