13
* (null), Energy   -1000.0000000
C     1.621188    0.403598    0.009016    0.065173   -0.923944    0.080568
C     1.539018   -0.919147    0.120543    0.154769    0.951210   -0.076654
N     0.234586   -1.584887    0.143046    0.031204   -0.093306    0.007829
C    -1.040982   -0.751715    0.035244   -0.098655    0.034509   -0.005239
N    -0.811196    0.577219   -0.071669   -0.000374   -0.032531    0.002641
C     0.423111    1.261638   -0.096194   -0.001757   -0.219107    0.018792
O    -2.084970   -1.326745    0.055920    0.064388    0.019871   -0.000177
O     0.451027    2.464431   -0.197533   -0.019033    0.240248   -0.020854
H     2.382077   -1.607559    0.201521   -0.970997   -0.096761   -0.017685
H     0.139969   -2.151905    1.007849   -0.428319   -0.275547   -0.173638
H    -1.647994    1.161186   -0.147295   -0.039097   -0.086222    0.006681
H     2.590366    0.904195   -0.008805   -0.680479    0.206472   -0.034885
H     0.188398   -2.293879   -0.614969   -0.453669   -0.253235    0.199712
13
* Frequency(31) 1745.1937
C     1.628595    0.298597    0.018172    0.065173   -0.923944    0.080568
C     1.556607   -0.811047    0.111831    0.154769    0.951210   -0.076654
N     0.238132   -1.595491    0.143936    0.031204   -0.093306    0.007829
C    -1.052194   -0.747793    0.034649   -0.098655    0.034509   -0.005239
N    -0.811239    0.573522   -0.071369   -0.000374   -0.032531    0.002641
C     0.422911    1.236738   -0.094058   -0.001757   -0.219107    0.018792
O    -2.077652   -1.324487    0.055900    0.064388    0.019871   -0.000177
O     0.448864    2.491734   -0.199903   -0.019033    0.240248   -0.020854
H     2.271728   -1.618555    0.199511   -0.970997   -0.096761   -0.017685
H     0.091293   -2.183219    0.988116   -0.428319   -0.275547   -0.173638
H    -1.652437    1.151387   -0.146536   -0.039097   -0.086222    0.006681
H     2.513033    0.927659   -0.012769   -0.680479    0.206472   -0.034885
H     0.136840   -2.322657   -0.592273   -0.453669   -0.253235    0.199712
13
* Frequency(31) 1745.1937
C     1.635199    0.204974    0.026336    0.065173   -0.923944    0.080568
C     1.572289   -0.714661    0.104064    0.154769    0.951210   -0.076654
N     0.241294   -1.604945    0.144729    0.031204   -0.093306    0.007829
C    -1.062190   -0.744296    0.034118   -0.098655    0.034509   -0.005239
N    -0.811277    0.570226   -0.071101   -0.000374   -0.032531    0.002641
C     0.422733    1.214536   -0.092154   -0.001757   -0.219107    0.018792
O    -2.071128   -1.322473    0.055882    0.064388    0.019871   -0.000177
O     0.446936    2.516078   -0.202016   -0.019033    0.240248   -0.020854
H     2.173337   -1.628360    0.197719   -0.970997   -0.096761   -0.017685
H     0.047891   -2.211140    0.970521   -0.428319   -0.275547   -0.173638
H    -1.656399    1.142651   -0.145859   -0.039097   -0.086222    0.006681
H     2.444080    0.948581   -0.016304   -0.680479    0.206472   -0.034885
H     0.090870   -2.348318   -0.572036   -0.453669   -0.253235    0.199712
13
* Frequency(31) 1745.1937
C     1.640284    0.132875    0.032623    0.065173   -0.923944    0.080568
C     1.584366   -0.640435    0.098082    0.154769    0.951210   -0.076654
N     0.243729   -1.612226    0.145340    0.031204   -0.093306    0.007829
C    -1.069889   -0.741603    0.033709   -0.098655    0.034509   -0.005239
N    -0.811306    0.567687   -0.070895   -0.000374   -0.032531    0.002641
C     0.422596    1.197438   -0.090687   -0.001757   -0.219107    0.018792
O    -2.066104   -1.320922    0.055869    0.064388    0.019871   -0.000177
O     0.445451    2.534825   -0.203643   -0.019033    0.240248   -0.020854
H     2.097567   -1.635911    0.196339   -0.970997   -0.096761   -0.017685
H     0.014468   -2.232642    0.956971   -0.428319   -0.275547   -0.173638
H    -1.659450    1.135922   -0.145338   -0.039097   -0.086222    0.006681
H     2.390980    0.964693   -0.019026   -0.680479    0.206472   -0.034885
H     0.055469   -2.368078   -0.556452   -0.453669   -0.253235    0.199712
13
* Frequency(31) 1745.1937
C     1.643301    0.090113    0.036352    0.065173   -0.923944    0.080568
C     1.591529   -0.596411    0.094535    0.154769    0.951210   -0.076654
N     0.245173   -1.616545    0.145702    0.031204   -0.093306    0.007829
C    -1.074454   -0.740006    0.033467   -0.098655    0.034509   -0.005239
N    -0.811323    0.566182   -0.070773   -0.000374   -0.032531    0.002641
C     0.422515    1.187297   -0.089817   -0.001757   -0.219107    0.018792
O    -2.063124   -1.320003    0.055860    0.064388    0.019871   -0.000177
O     0.444570    2.545944   -0.204609   -0.019033    0.240248   -0.020854
H     2.052627   -1.640389    0.195520   -0.970997   -0.096761   -0.017685
H    -0.005356   -2.245395    0.948935   -0.428319   -0.275547   -0.173638
H    -1.661259    1.131932   -0.145029   -0.039097   -0.086222    0.006681
H     2.359486    0.974249   -0.020641   -0.680479    0.206472   -0.034885
H     0.034472   -2.379799   -0.547209   -0.453669   -0.253235    0.199712
13
* Frequency(31) 1745.1937
C     1.643921    0.081322    0.037118    0.065173   -0.923944    0.080568
C     1.593002   -0.587361    0.093805    0.154769    0.951210   -0.076654
N     0.245470   -1.617432    0.145777    0.031204   -0.093306    0.007829
C    -1.075393   -0.739678    0.033417   -0.098655    0.034509   -0.005239
N    -0.811327    0.565872   -0.070748   -0.000374   -0.032531    0.002641
C     0.422498    1.185213   -0.089639   -0.001757   -0.219107    0.018792
O    -2.062511   -1.319814    0.055859    0.064388    0.019871   -0.000177
O     0.444389    2.548230   -0.204807   -0.019033    0.240248   -0.020854
H     2.043389   -1.641309    0.195352   -0.970997   -0.096761   -0.017685
H    -0.009431   -2.248017    0.947283   -0.428319   -0.275547   -0.173638
H    -1.661631    1.131112   -0.144965   -0.039097   -0.086222    0.006681
H     2.353012    0.976213   -0.020973   -0.680479    0.206472   -0.034885
H     0.030156   -2.382208   -0.545308   -0.453669   -0.253235    0.199712
13
* Frequency(31) 1745.1937
C     1.642078    0.107455    0.034840    0.065173   -0.923944    0.080568
C     1.588625   -0.614265    0.095973    0.154769    0.951210   -0.076654
N     0.244587   -1.614793    0.145555    0.031204   -0.093306    0.007829
C    -1.072603   -0.740654    0.033565   -0.098655    0.034509   -0.005239
N    -0.811316    0.566792   -0.070822   -0.000374   -0.032531    0.002641
C     0.422548    1.191410   -0.090170   -0.001757   -0.219107    0.018792
O    -2.064332   -1.320376    0.055864    0.064388    0.019871   -0.000177
O     0.444927    2.541435   -0.204217   -0.019033    0.240248   -0.020854
H     2.070852   -1.638573    0.195852   -0.970997   -0.096761   -0.017685
H     0.002684   -2.240223    0.952194   -0.428319   -0.275547   -0.173638
H    -1.660526    1.133550   -0.145154   -0.039097   -0.086222    0.006681
H     2.372258    0.970373   -0.019986   -0.680479    0.206472   -0.034885
H     0.042987   -2.375046   -0.550957   -0.453669   -0.253235    0.199712
13
* Frequency(31) 1745.1937
C     1.637970    0.165679    0.029762    0.065173   -0.923944    0.080568
C     1.578871   -0.674208    0.100804    0.154769    0.951210   -0.076654
N     0.242621   -1.608913    0.145062    0.031204   -0.093306    0.007829
C    -1.066386   -0.742828    0.033895   -0.098655    0.034509   -0.005239
N    -0.811293    0.568842   -0.070989   -0.000374   -0.032531    0.002641
C     0.422659    1.205217   -0.091354   -0.001757   -0.219107    0.018792
O    -2.068390   -1.321628    0.055875    0.064388    0.019871   -0.000177
O     0.446126    2.526295   -0.202903   -0.019033    0.240248   -0.020854
H     2.132042   -1.632475    0.196967   -0.970997   -0.096761   -0.017685
H     0.029675   -2.222859    0.963136   -0.428319   -0.275547   -0.173638
H    -1.658062    1.138984   -0.145575   -0.039097   -0.086222    0.006681
H     2.415140    0.957362   -0.017788   -0.680479    0.206472   -0.034885
H     0.071576   -2.359087   -0.563542   -0.453669   -0.253235    0.199712
13
* Frequency(31) 1745.1937
C     1.632045    0.249686    0.022437    0.065173   -0.923944    0.080568
C     1.564800   -0.760693    0.107773    0.154769    0.951210   -0.076654
N     0.239784   -1.600430    0.144350    0.031204   -0.093306    0.007829
C    -1.057416   -0.745966    0.034372   -0.098655    0.034509   -0.005239
N    -0.811259    0.571800   -0.071229   -0.000374   -0.032531    0.002641
C     0.422818    1.225139   -0.093063   -0.001757   -0.219107    0.018792
O    -2.074244   -1.323435    0.055891    0.064388    0.019871   -0.000177
O     0.447857    2.504452   -0.201007   -0.019033    0.240248   -0.020854
H     2.220327   -1.623677    0.198575   -0.970997   -0.096761   -0.017685
H     0.068619   -2.197806    0.978924   -0.428319   -0.275547   -0.173638
H    -1.654507    1.146823   -0.146183   -0.039097   -0.086222    0.006681
H     2.477011    0.938589   -0.014616   -0.680479    0.206472   -0.034885
H     0.112825   -2.336063   -0.581700   -0.453669   -0.253235    0.199712
13
* Frequency(31) 1745.1937
C     1.624943    0.350371    0.013657    0.065173   -0.923944    0.080568
C     1.547934   -0.864350    0.116127    0.154769    0.951210   -0.076654
N     0.236384   -1.590262    0.143497    0.031204   -0.093306    0.007829
C    -1.046665   -0.749727    0.034943   -0.098655    0.034509   -0.005239
N    -0.811218    0.575345   -0.071517   -0.000374   -0.032531    0.002641
C     0.423010    1.249016   -0.095111   -0.001757   -0.219107    0.018792
O    -2.081260   -1.325600    0.055910    0.064388    0.019871   -0.000177
O     0.449931    2.478271   -0.198734   -0.019033    0.240248   -0.020854
H     2.326140   -1.613133    0.200502   -0.970997   -0.096761   -0.017685
H     0.115294   -2.167778    0.997846   -0.428319   -0.275547   -0.173638
H    -1.650246    1.156219   -0.146911   -0.039097   -0.086222    0.006681
H     2.551165    0.916089   -0.010814   -0.680479    0.206472   -0.034885
H     0.162263   -2.308467   -0.603464   -0.453669   -0.253235    0.199712
13
* Frequency(31) 1745.1937
C     1.617434    0.456825    0.004375    0.065173   -0.923944    0.080568
C     1.530102   -0.973945    0.124959    0.154769    0.951210   -0.076654
N     0.232788   -1.579512    0.142595    0.031204   -0.093306    0.007829
C    -1.035299   -0.753703    0.035546   -0.098655    0.034509   -0.005239
N    -0.811175    0.579093   -0.071821   -0.000374   -0.032531    0.002641
C     0.423212    1.274261   -0.097276   -0.001757   -0.219107    0.018792
O    -2.088679   -1.327890    0.055931    0.064388    0.019871   -0.000177
O     0.452124    2.450590   -0.196331   -0.019033    0.240248   -0.020854
H     2.438014   -1.601985    0.202539   -0.970997   -0.096761   -0.017685
H     0.164644   -2.136031    1.017852   -0.428319   -0.275547   -0.173638
H    -1.645742    1.166153   -0.147680   -0.039097   -0.086222    0.006681
H     2.629567    0.892300   -0.006795   -0.680479    0.206472   -0.034885
H     0.214533   -2.279290   -0.626474   -0.453669   -0.253235    0.199712
13
* Frequency(31) 1745.1937
C     1.610332    0.557510   -0.004405    0.065173   -0.923944    0.080568
C     1.513236   -1.077601    0.133312    0.154769    0.951210   -0.076654
N     0.229388   -1.569344    0.141742    0.031204   -0.093306    0.007829
C    -1.024548   -0.757463    0.036117   -0.098655    0.034509   -0.005239
N    -0.811134    0.582638   -0.072109   -0.000374   -0.032531    0.002641
C     0.423404    1.298137   -0.099324   -0.001757   -0.219107    0.018792
O    -2.095696   -1.330055    0.055950    0.064388    0.019871   -0.000177
O     0.454198    2.424410   -0.194059   -0.019033    0.240248   -0.020854
H     2.543827   -1.591440    0.204467   -0.970997   -0.096761   -0.017685
H     0.211319   -2.106003    1.036774   -0.428319   -0.275547   -0.173638
H    -1.641481    1.175549   -0.148408   -0.039097   -0.086222    0.006681
H     2.703721    0.869800   -0.002993   -0.680479    0.206472   -0.034885
H     0.263971   -2.251694   -0.648237   -0.453669   -0.253235    0.199712
13
* Frequency(31) 1745.1937
C     1.604406    0.641517   -0.011730    0.065173   -0.923944    0.080568
C     1.499164   -1.164087    0.140281    0.154769    0.951210   -0.076654
N     0.226551   -1.560860    0.141030    0.031204   -0.093306    0.007829
C    -1.015578   -0.760601    0.036593   -0.098655    0.034509   -0.005239
N    -0.811100    0.585596   -0.072349   -0.000374   -0.032531    0.002641
C     0.423564    1.318059   -0.101033   -0.001757   -0.219107    0.018792
O    -2.101550   -1.331862    0.055966    0.064388    0.019871   -0.000177
O     0.455929    2.402566   -0.192163   -0.019033    0.240248   -0.020854
H     2.632112   -1.582642    0.206075   -0.970997   -0.096761   -0.017685
H     0.250263   -2.080950    1.052561   -0.428319   -0.275547   -0.173638
H    -1.637926    1.183388   -0.149016   -0.039097   -0.086222    0.006681
H     2.765591    0.851027    0.000178   -0.680479    0.206472   -0.034885
H     0.305219   -2.228670   -0.666395   -0.453669   -0.253235    0.199712
13
* Frequency(31) 1745.1937
C     1.600299    0.699741   -0.016808    0.065173   -0.923944    0.080568
C     1.489411   -1.224030    0.145112    0.154769    0.951210   -0.076654
N     0.224584   -1.554980    0.140537    0.031204   -0.093306    0.007829
C    -1.009361   -0.762776    0.036924   -0.098655    0.034509   -0.005239
N    -0.811076    0.587646   -0.072515   -0.000374   -0.032531    0.002641
C     0.423674    1.331867   -0.102217   -0.001757   -0.219107    0.018792
O    -2.105607   -1.333114    0.055977    0.064388    0.019871   -0.000177
O     0.457128    2.387426   -0.190849   -0.019033    0.240248   -0.020854
H     2.693302   -1.576545    0.207189   -0.970997   -0.096761   -0.017685
H     0.277254   -2.063586    1.063503   -0.428319   -0.275547   -0.173638
H    -1.635463    1.188822   -0.149437   -0.039097   -0.086222    0.006681
H     2.808473    0.838016    0.002377   -0.680479    0.206472   -0.034885
H     0.333808   -2.212712   -0.678981   -0.453669   -0.253235    0.199712
13
* Frequency(31) 1745.1937
C     1.598455    0.725874   -0.019086    0.065173   -0.923944    0.080568
C     1.485034   -1.250934    0.147280    0.154769    0.951210   -0.076654
N     0.223702   -1.552341    0.140315    0.031204   -0.093306    0.007829
C    -1.006571   -0.763752    0.037072   -0.098655    0.034509   -0.005239
N    -0.811066    0.588566   -0.072590   -0.000374   -0.032531    0.002641
C     0.423724    1.338064   -0.102748   -0.001757   -0.219107    0.018792
O    -2.107429   -1.333676    0.055982    0.064388    0.019871   -0.000177
O     0.457666    2.380631   -0.190259   -0.019033    0.240248   -0.020854
H     2.720765   -1.573808    0.207689   -0.970997   -0.096761   -0.017685
H     0.289369   -2.055792    1.068414   -0.428319   -0.275547   -0.173638
H    -1.634357    1.191261   -0.149626   -0.039097   -0.086222    0.006681
H     2.827720    0.832176    0.003363   -0.680479    0.206472   -0.034885
H     0.346640   -2.205549   -0.684629   -0.453669   -0.253235    0.199712
13
* Frequency(31) 1745.1937
C     1.599076    0.717083   -0.018320    0.065173   -0.923944    0.080568
C     1.486506   -1.241883    0.146551    0.154769    0.951210   -0.076654
N     0.223999   -1.553229    0.140390    0.031204   -0.093306    0.007829
C    -1.007509   -0.763423    0.037022   -0.098655    0.034509   -0.005239
N    -0.811069    0.588256   -0.072565   -0.000374   -0.032531    0.002641
C     0.423707    1.335979   -0.102570   -0.001757   -0.219107    0.018792
O    -2.106816   -1.333487    0.055980    0.064388    0.019871   -0.000177
O     0.457485    2.382917   -0.190457   -0.019033    0.240248   -0.020854
H     2.711527   -1.574729    0.207521   -0.970997   -0.096761   -0.017685
H     0.285293   -2.058414    1.066762   -0.428319   -0.275547   -0.173638
H    -1.634729    1.190440   -0.149562   -0.039097   -0.086222    0.006681
H     2.821246    0.834141    0.003031   -0.680479    0.206472   -0.034885
H     0.342323   -2.207959   -0.682729   -0.453669   -0.253235    0.199712
13
* Frequency(31) 1745.1937
C     1.602092    0.674322   -0.014591    0.065173   -0.923944    0.080568
C     1.493669   -1.197860    0.143003    0.154769    0.951210   -0.076654
N     0.225443   -1.557547    0.140752    0.031204   -0.093306    0.007829
C    -1.012075   -0.761826    0.036779   -0.098655    0.034509   -0.005239
N    -0.811087    0.586751   -0.072443   -0.000374   -0.032531    0.002641
C     0.423626    1.325838   -0.101700   -0.001757   -0.219107    0.018792
O    -2.103836   -1.332567    0.055972    0.064388    0.019871   -0.000177
O     0.456604    2.394036   -0.191422   -0.019033    0.240248   -0.020854
H     2.666587   -1.579207    0.206702   -0.970997   -0.096761   -0.017685
H     0.265470   -2.071167    1.058726   -0.428319   -0.275547   -0.173638
H    -1.636538    1.186450   -0.149253   -0.039097   -0.086222    0.006681
H     2.789752    0.843697    0.001417   -0.680479    0.206472   -0.034885
H     0.321326   -2.219679   -0.673486   -0.453669   -0.253235    0.199712
13
* Frequency(31) 1745.1937
C     1.607178    0.602223   -0.008304    0.065173   -0.923944    0.080568
C     1.505747   -1.123633    0.137021    0.154769    0.951210   -0.076654
N     0.227878   -1.564828    0.141363    0.031204   -0.093306    0.007829
C    -1.019774   -0.759133    0.036371   -0.098655    0.034509   -0.005239
N    -0.811116    0.584212   -0.072237   -0.000374   -0.032531    0.002641
C     0.423489    1.308741   -0.100233   -0.001757   -0.219107    0.018792
O    -2.098811   -1.331017    0.055958    0.064388    0.019871   -0.000177
O     0.455119    2.412783   -0.193050   -0.019033    0.240248   -0.020854
H     2.590817   -1.586758    0.205322   -0.970997   -0.096761   -0.017685
H     0.232047   -2.092669    1.045176   -0.428319   -0.275547   -0.173638
H    -1.639589    1.179722   -0.148732   -0.039097   -0.086222    0.006681
H     2.736651    0.859809   -0.001305   -0.680479    0.206472   -0.034885
H     0.285925   -2.239440   -0.657902   -0.453669   -0.253235    0.199712
13
* Frequency(31) 1745.1937
C     1.613782    0.508600   -0.000140    0.065173   -0.923944    0.080568
C     1.521429   -1.027247    0.129254    0.154769    0.951210   -0.076654
N     0.231040   -1.574283    0.142156    0.031204   -0.093306    0.007829
C    -1.029770   -0.755636    0.035840   -0.098655    0.034509   -0.005239
N    -0.811154    0.580916   -0.071969   -0.000374   -0.032531    0.002641
C     0.423311    1.286539   -0.098329   -0.001757   -0.219107    0.018792
O    -2.092287   -1.329003    0.055940    0.064388    0.019871   -0.000177
O     0.453190    2.437128   -0.195163   -0.019033    0.240248   -0.020854
H     2.492426   -1.596562    0.203530   -0.970997   -0.096761   -0.017685
H     0.188645   -2.120590    1.027582   -0.428319   -0.275547   -0.173638
H    -1.643551    1.170985   -0.148055   -0.039097   -0.086222    0.006681
H     2.667699    0.880730   -0.004840   -0.680479    0.206472   -0.034885
H     0.239955   -2.265100   -0.637665   -0.453669   -0.253235    0.199712
13
* Frequency(31) 1745.1937
C     1.621188    0.403598    0.009016    0.065173   -0.923944    0.080568
C     1.539018   -0.919147    0.120543    0.154769    0.951210   -0.076654
N     0.234586   -1.584887    0.143046    0.031204   -0.093306    0.007829
C    -1.040982   -0.751715    0.035244   -0.098655    0.034509   -0.005239
N    -0.811196    0.577219   -0.071669   -0.000374   -0.032531    0.002641
C     0.423111    1.261638   -0.096194   -0.001757   -0.219107    0.018792
O    -2.084970   -1.326745    0.055920    0.064388    0.019871   -0.000177
O     0.451027    2.464431   -0.197533   -0.019033    0.240248   -0.020854
H     2.382077   -1.607559    0.201521   -0.970997   -0.096761   -0.017685
H     0.139969   -2.151905    1.007849   -0.428319   -0.275547   -0.173638
H    -1.647994    1.161186   -0.147295   -0.039097   -0.086222    0.006681
H     2.590366    0.904195   -0.008805   -0.680479    0.206472   -0.034885
H     0.188398   -2.293879   -0.614969   -0.453669   -0.253235    0.199712
