13
* (null), Energy   -1000.0000000
C     1.365855    0.533997   -0.017795    0.009353   -0.035909    0.003005
C     1.281863   -0.788655    0.093257   -0.148604   -0.110346    0.004976
N    -0.021011   -1.450395    0.118437    0.099928   -0.011280    0.003618
C    -1.289878   -0.622329    0.007801   -0.101319    0.247370   -0.022686
N    -1.064188    0.706802   -0.097341   -0.124830   -0.225095    0.015046
C     0.168081    1.391376   -0.119566    0.355756    0.048582    0.005655
O    -2.334795   -1.198357    0.024143    0.066405    0.034465   -0.001103
O     0.193513    2.595440   -0.217241   -0.029610    0.019495   -0.002465
H     2.123010   -1.478478    0.173803    0.184958    0.294575   -0.020174
H    -0.114939   -2.012404    0.984263   -0.246001    0.075185    0.015810
H    -1.901448    1.289086   -0.172072   -0.680160   -1.018468    0.068138
H     2.334895    1.034094   -0.036100   -0.643368    1.225847   -0.116780
H    -0.071619   -2.162707   -0.633029   -0.225930    0.067299   -0.041884
13
* Frequency(24) 1247.1819
C     1.366918    0.529916   -0.017454    0.009353   -0.035909    0.003005
C     1.264975   -0.801196    0.093822   -0.148604   -0.110346    0.004976
N    -0.009654   -1.451677    0.118848    0.099928   -0.011280    0.003618
C    -1.301392   -0.594217    0.005223   -0.101319    0.247370   -0.022686
N    -1.078374    0.681221   -0.095631   -0.124830   -0.225095    0.015046
C     0.208511    1.396897   -0.118924    0.355756    0.048582    0.005655
O    -2.327248   -1.194440    0.024018    0.066405    0.034465   -0.001103
O     0.190148    2.597656   -0.217521   -0.029610    0.019495   -0.002465
H     2.144030   -1.445001    0.171511    0.184958    0.294575   -0.020174
H    -0.142895   -2.003860    0.986060   -0.246001    0.075185    0.015810
H    -1.978745    1.173342   -0.164329   -0.680160   -1.018468    0.068138
H     2.261779    1.173405   -0.049371   -0.643368    1.225847   -0.116780
H    -0.097295   -2.155058   -0.637789   -0.225930    0.067299   -0.041884
13
* Frequency(24) 1247.1819
C     1.367866    0.526278   -0.017149    0.009353   -0.035909    0.003005
C     1.249917   -0.812377    0.094326   -0.148604   -0.110346    0.004976
N     0.000471   -1.452820    0.119215    0.099928   -0.011280    0.003618
C    -1.311659   -0.569151    0.002924   -0.101319    0.247370   -0.022686
N    -1.091023    0.658412   -0.094107   -0.124830   -0.225095    0.015046
C     0.244560    1.401820   -0.118351    0.355756    0.048582    0.005655
O    -2.320520   -1.190948    0.023906    0.066405    0.034465   -0.001103
O     0.187147    2.599631   -0.217771   -0.029610    0.019495   -0.002465
H     2.162771   -1.415152    0.169467    0.184958    0.294575   -0.020174
H    -0.167823   -1.996241    0.987662   -0.246001    0.075185    0.015810
H    -2.047665    1.070141   -0.157425   -0.680160   -1.018468    0.068138
H     2.196587    1.297620   -0.061205   -0.643368    1.225847   -0.116780
H    -0.120188   -2.148239   -0.642033   -0.225930    0.067299   -0.041884
13
* Frequency(24) 1247.1819
C     1.368596    0.523476   -0.016915    0.009353   -0.035909    0.003005
C     1.238321   -0.820988    0.094715   -0.148604   -0.110346    0.004976
N     0.008269   -1.453700    0.119497    0.099928   -0.011280    0.003618
C    -1.319565   -0.549848    0.001154   -0.101319    0.247370   -0.022686
N    -1.100764    0.640847   -0.092933   -0.124830   -0.225095    0.015046
C     0.272321    1.405611   -0.117909    0.355756    0.048582    0.005655
O    -2.315338   -1.188259    0.023820    0.066405    0.034465   -0.001103
O     0.184837    2.601152   -0.217964   -0.029610    0.019495   -0.002465
H     2.177204   -1.392165    0.167892    0.184958    0.294575   -0.020174
H    -0.187019   -1.990374    0.988896   -0.246001    0.075185    0.015810
H    -2.100740    0.990666   -0.152107   -0.680160   -1.018468    0.068138
H     2.146383    1.393277   -0.070318   -0.643368    1.225847   -0.116780
H    -0.137818   -2.142987   -0.645301   -0.225930    0.067299   -0.041884
13
* Frequency(24) 1247.1819
C     1.369028    0.521814   -0.016776    0.009353   -0.035909    0.003005
C     1.231443   -0.826095    0.094945   -0.148604   -0.110346    0.004976
N     0.012894   -1.454222    0.119665    0.099928   -0.011280    0.003618
C    -1.324254   -0.538399    0.000104   -0.101319    0.247370   -0.022686
N    -1.106541    0.630429   -0.092236   -0.124830   -0.225095    0.015046
C     0.288786    1.407859   -0.117648    0.355756    0.048582    0.005655
O    -2.312264   -1.186663    0.023769    0.066405    0.034465   -0.001103
O     0.183466    2.602055   -0.218078   -0.029610    0.019495   -0.002465
H     2.185765   -1.378531    0.166959    0.184958    0.294575   -0.020174
H    -0.198404   -1.986894    0.989628   -0.246001    0.075185    0.015810
H    -2.132220    0.943530   -0.148954   -0.680160   -1.018468    0.068138
H     2.116606    1.450012   -0.075722   -0.643368    1.225847   -0.116780
H    -0.148275   -2.139873   -0.647239   -0.225930    0.067299   -0.041884
13
* Frequency(24) 1247.1819
C     1.369117    0.521472   -0.016747    0.009353   -0.035909    0.003005
C     1.230029   -0.827145    0.094992   -0.148604   -0.110346    0.004976
N     0.013845   -1.454330    0.119699    0.099928   -0.011280    0.003618
C    -1.325218   -0.536046   -0.000112   -0.101319    0.247370   -0.022686
N    -1.107729    0.628288   -0.092093   -0.124830   -0.225095    0.015046
C     0.292170    1.408322   -0.117594    0.355756    0.048582    0.005655
O    -2.311633   -1.186336    0.023759    0.066405    0.034465   -0.001103
O     0.183185    2.602240   -0.218101   -0.029610    0.019495   -0.002465
H     2.187524   -1.375729    0.166767    0.184958    0.294575   -0.020174
H    -0.200745   -1.986179    0.989778   -0.246001    0.075185    0.015810
H    -2.138691    0.933840   -0.148306   -0.680160   -1.018468    0.068138
H     2.110485    1.461675   -0.076833   -0.643368    1.225847   -0.116780
H    -0.150425   -2.139232   -0.647638   -0.225930    0.067299   -0.041884
13
* Frequency(24) 1247.1819
C     1.368853    0.522488   -0.016832    0.009353   -0.035909    0.003005
C     1.234232   -0.824024    0.094852   -0.148604   -0.110346    0.004976
N     0.011018   -1.454011    0.119597    0.099928   -0.011280    0.003618
C    -1.322353   -0.543042    0.000530   -0.101319    0.247370   -0.022686
N    -1.104198    0.634654   -0.092519   -0.124830   -0.225095    0.015046
C     0.282108    1.406948   -0.117754    0.355756    0.048582    0.005655
O    -2.313511   -1.187310    0.023790    0.066405    0.034465   -0.001103
O     0.184022    2.601689   -0.218031   -0.029610    0.019495   -0.002465
H     2.182293   -1.384060    0.167337    0.184958    0.294575   -0.020174
H    -0.193787   -1.988306    0.989331   -0.246001    0.075185    0.015810
H    -2.119453    0.962646   -0.150233   -0.680160   -1.018468    0.068138
H     2.128682    1.427003   -0.073530   -0.643368    1.225847   -0.116780
H    -0.144034   -2.141136   -0.646453   -0.225930    0.067299   -0.041884
13
* Frequency(24) 1247.1819
C     1.368263    0.524751   -0.017022    0.009353   -0.035909    0.003005
C     1.243597   -0.817070    0.094538   -0.148604   -0.110346    0.004976
N     0.004721   -1.453300    0.119369    0.099928   -0.011280    0.003618
C    -1.315968   -0.558631    0.001959   -0.101319    0.247370   -0.022686
N    -1.096332    0.648839   -0.093467   -0.124830   -0.225095    0.015046
C     0.259690    1.403886   -0.118110    0.355756    0.048582    0.005655
O    -2.317695   -1.189482    0.023859    0.066405    0.034465   -0.001103
O     0.185888    2.600460   -0.217876   -0.029610    0.019495   -0.002465
H     2.170637   -1.402624    0.168609    0.184958    0.294575   -0.020174
H    -0.178285   -1.993044    0.988335   -0.246001    0.075185    0.015810
H    -2.076591    1.026827   -0.154527   -0.680160   -1.018468    0.068138
H     2.169225    1.349754   -0.066171   -0.643368    1.225847   -0.116780
H    -0.129797   -2.145377   -0.643814   -0.225930    0.067299   -0.041884
13
* Frequency(24) 1247.1819
C     1.367413    0.528016   -0.017295    0.009353   -0.035909    0.003005
C     1.257108   -0.807037    0.094086   -0.148604   -0.110346    0.004976
N    -0.004364   -1.452274    0.119040    0.099928   -0.011280    0.003618
C    -1.306755   -0.581122    0.004022   -0.101319    0.247370   -0.022686
N    -1.084982    0.669305   -0.094835   -0.124830   -0.225095    0.015046
C     0.227344    1.399469   -0.118624    0.355756    0.048582    0.005655
O    -2.323733   -1.192616    0.023960    0.066405    0.034465   -0.001103
O     0.188580    2.598688   -0.217652   -0.029610    0.019495   -0.002465
H     2.153821   -1.429407    0.170443    0.184958    0.294575   -0.020174
H    -0.155918   -1.999879    0.986897   -0.246001    0.075185    0.015810
H    -2.014750    1.119428   -0.160722   -0.680160   -1.018468    0.068138
H     2.227721    1.238298   -0.055553   -0.643368    1.225847   -0.116780
H    -0.109255   -2.151496   -0.640006   -0.225930    0.067299   -0.041884
13
* Frequency(24) 1247.1819
C     1.366394    0.531929   -0.017622    0.009353   -0.035909    0.003005
C     1.273302   -0.795012    0.093543   -0.148604   -0.110346    0.004976
N    -0.015254   -1.451045    0.118646    0.099928   -0.011280    0.003618
C    -1.295714   -0.608079    0.006494   -0.101319    0.247370   -0.022686
N    -1.071379    0.693834   -0.096474   -0.124830   -0.225095    0.015046
C     0.188576    1.394175   -0.119241    0.355756    0.048582    0.005655
O    -2.330970   -1.196372    0.024080    0.066405    0.034465   -0.001103
O     0.191807    2.596563   -0.217383   -0.029610    0.019495   -0.002465
H     2.133665   -1.461508    0.172641    0.184958    0.294575   -0.020174
H    -0.129110   -2.008073    0.985174   -0.246001    0.075185    0.015810
H    -1.940631    1.230414   -0.168147   -0.680160   -1.018468    0.068138
H     2.297832    1.104713   -0.042827   -0.643368    1.225847   -0.116780
H    -0.084634   -2.158830   -0.635441   -0.225930    0.067299   -0.041884
13
* Frequency(24) 1247.1819
C     1.365316    0.536066   -0.017969    0.009353   -0.035909    0.003005
C     1.290424   -0.782299    0.092970   -0.148604   -0.110346    0.004976
N    -0.026767   -1.449745    0.118229    0.099928   -0.011280    0.003618
C    -1.284041   -0.636580    0.009108   -0.101319    0.247370   -0.022686
N    -1.056997    0.719769   -0.098208   -0.124830   -0.225095    0.015046
C     0.147587    1.388577   -0.119892    0.355756    0.048582    0.005655
O    -2.338620   -1.200343    0.024207    0.066405    0.034465   -0.001103
O     0.195219    2.594317   -0.217099   -0.029610    0.019495   -0.002465
H     2.112355   -1.495448    0.174966    0.184958    0.294575   -0.020174
H    -0.100767   -2.016735    0.983353   -0.246001    0.075185    0.015810
H    -1.862265    1.347758   -0.175998   -0.680160   -1.018468    0.068138
H     2.371958    0.963475   -0.029372   -0.643368    1.225847   -0.116780
H    -0.058604   -2.166583   -0.630616   -0.225930    0.067299   -0.041884
13
* Frequency(24) 1247.1819
C     1.364297    0.539979   -0.018296    0.009353   -0.035909    0.003005
C     1.306618   -0.770274    0.092428   -0.148604   -0.110346    0.004976
N    -0.037657   -1.448516    0.117835    0.099928   -0.011280    0.003618
C    -1.273000   -0.663537    0.011580   -0.101319    0.247370   -0.022686
N    -1.043394    0.744298   -0.099848   -0.124830   -0.225095    0.015046
C     0.108819    1.383283   -0.120508    0.355756    0.048582    0.005655
O    -2.345857   -1.204098    0.024327    0.066405    0.034465   -0.001103
O     0.198445    2.592193   -0.216831   -0.029610    0.019495   -0.002465
H     2.092199   -1.527549    0.177164    0.184958    0.294575   -0.020174
H    -0.073959   -2.024928    0.981630   -0.246001    0.075185    0.015810
H    -1.788146    1.458744   -0.183423   -0.680160   -1.018468    0.068138
H     2.442068    0.829890   -0.016647   -0.643368    1.225847   -0.116780
H    -0.033983   -2.173917   -0.626052   -0.225930    0.067299   -0.041884
13
* Frequency(24) 1247.1819
C     1.363446    0.543244   -0.018569    0.009353   -0.035909    0.003005
C     1.320129   -0.760241    0.091975   -0.148604   -0.110346    0.004976
N    -0.046743   -1.447490    0.117506    0.099928   -0.011280    0.003618
C    -1.263787   -0.686028    0.013643   -0.101319    0.247370   -0.022686
N    -1.032044    0.764764   -0.101216   -0.124830   -0.225095    0.015046
C     0.076473    1.378866   -0.121022    0.355756    0.048582    0.005655
O    -2.351895   -1.207232    0.024427    0.066405    0.034465   -0.001103
O     0.201138    2.590420   -0.216606   -0.029610    0.019495   -0.002465
H     2.075383   -1.554332    0.178998    0.184958    0.294575   -0.020174
H    -0.051592   -2.031764    0.980192   -0.246001    0.075185    0.015810
H    -1.726304    1.551345   -0.189618   -0.680160   -1.018468    0.068138
H     2.500564    0.718434   -0.006029   -0.643368    1.225847   -0.116780
H    -0.013441   -2.180036   -0.622244   -0.225930    0.067299   -0.041884
13
* Frequency(24) 1247.1819
C     1.362857    0.545507   -0.018759    0.009353   -0.035909    0.003005
C     1.329494   -0.753287    0.091662   -0.148604   -0.110346    0.004976
N    -0.053040   -1.446780    0.117278    0.099928   -0.011280    0.003618
C    -1.257403   -0.701617    0.015072   -0.101319    0.247370   -0.022686
N    -1.024177    0.778949   -0.102164   -0.124830   -0.225095    0.015046
C     0.054054    1.375804   -0.121379    0.355756    0.048582    0.005655
O    -2.356079   -1.209404    0.024497    0.066405    0.034465   -0.001103
O     0.203003    2.589192   -0.216451   -0.029610    0.019495   -0.002465
H     2.063727   -1.572895    0.180270    0.184958    0.294575   -0.020174
H    -0.036090   -2.036502    0.979196   -0.246001    0.075185    0.015810
H    -1.683443    1.615526   -0.193912   -0.680160   -1.018468    0.068138
H     2.541108    0.641185    0.001331   -0.643368    1.225847   -0.116780
H     0.000796   -2.184277   -0.619604   -0.225930    0.067299   -0.041884
13
* Frequency(24) 1247.1819
C     1.362592    0.546523   -0.018844    0.009353   -0.035909    0.003005
C     1.333697   -0.750166    0.091521   -0.148604   -0.110346    0.004976
N    -0.055866   -1.446460    0.117175    0.099928   -0.011280    0.003618
C    -1.254537   -0.708613    0.015714   -0.101319    0.247370   -0.022686
N    -1.020647    0.785316   -0.102589   -0.124830   -0.225095    0.015046
C     0.043992    1.374430   -0.121539    0.355756    0.048582    0.005655
O    -2.357958   -1.210379    0.024528    0.066405    0.034465   -0.001103
O     0.203841    2.588640   -0.216381   -0.029610    0.019495   -0.002465
H     2.058496   -1.581227    0.180840    0.184958    0.294575   -0.020174
H    -0.029132   -2.038629    0.978749   -0.246001    0.075185    0.015810
H    -1.664205    1.644332   -0.195839   -0.680160   -1.018468    0.068138
H     2.559305    0.606513    0.004634   -0.643368    1.225847   -0.116780
H     0.007186   -2.186181   -0.618420   -0.225930    0.067299   -0.041884
13
* Frequency(24) 1247.1819
C     1.362681    0.546181   -0.018815    0.009353   -0.035909    0.003005
C     1.332283   -0.751216    0.091568   -0.148604   -0.110346    0.004976
N    -0.054915   -1.446568    0.117210    0.099928   -0.011280    0.003618
C    -1.255501   -0.706260    0.015498   -0.101319    0.247370   -0.022686
N    -1.021834    0.783174   -0.102446   -0.124830   -0.225095    0.015046
C     0.047377    1.374892   -0.121485    0.355756    0.048582    0.005655
O    -2.357326   -1.210051    0.024517    0.066405    0.034465   -0.001103
O     0.203559    2.588826   -0.216405   -0.029610    0.019495   -0.002465
H     2.060255   -1.578424    0.180648    0.184958    0.294575   -0.020174
H    -0.031473   -2.037914    0.978899   -0.246001    0.075185    0.015810
H    -1.670676    1.634642   -0.195191   -0.680160   -1.018468    0.068138
H     2.553183    0.618176    0.003522   -0.643368    1.225847   -0.116780
H     0.005037   -2.185540   -0.618818   -0.225930    0.067299   -0.041884
13
* Frequency(24) 1247.1819
C     1.363114    0.544519   -0.018676    0.009353   -0.035909    0.003005
C     1.325405   -0.756323    0.091799   -0.148604   -0.110346    0.004976
N    -0.050290   -1.447090    0.117377    0.099928   -0.011280    0.003618
C    -1.260190   -0.694811    0.014448   -0.101319    0.247370   -0.022686
N    -1.027612    0.772756   -0.101750   -0.124830   -0.225095    0.015046
C     0.063842    1.377141   -0.121223    0.355756    0.048582    0.005655
O    -2.354252   -1.208456    0.024466    0.066405    0.034465   -0.001103
O     0.202189    2.589728   -0.216519   -0.029610    0.019495   -0.002465
H     2.068816   -1.564791    0.179715    0.184958    0.294575   -0.020174
H    -0.042858   -2.034434    0.979631   -0.246001    0.075185    0.015810
H    -1.702155    1.587506   -0.192038   -0.680160   -1.018468    0.068138
H     2.523407    0.674911   -0.001882   -0.643368    1.225847   -0.116780
H    -0.005420   -2.182426   -0.620756   -0.225930    0.067299   -0.041884
13
* Frequency(24) 1247.1819
C     1.363844    0.541717   -0.018441    0.009353   -0.035909    0.003005
C     1.313809   -0.764934    0.092187   -0.148604   -0.110346    0.004976
N    -0.042493   -1.447970    0.117659    0.099928   -0.011280    0.003618
C    -1.268096   -0.675508    0.012678   -0.101319    0.247370   -0.022686
N    -1.037353    0.755191   -0.100576   -0.124830   -0.225095    0.015046
C     0.091603    1.380932   -0.120782    0.355756    0.048582    0.005655
O    -2.349070   -1.205766    0.024380    0.066405    0.034465   -0.001103
O     0.199878    2.591249   -0.216711   -0.029610    0.019495   -0.002465
H     2.083249   -1.541804    0.178140    0.184958    0.294575   -0.020174
H    -0.062055   -2.028567    0.980865   -0.246001    0.075185    0.015810
H    -1.755231    1.508031   -0.186720   -0.680160   -1.018468    0.068138
H     2.473203    0.770568   -0.010995   -0.643368    1.225847   -0.116780
H    -0.023050   -2.177174   -0.624025   -0.225930    0.067299   -0.041884
13
* Frequency(24) 1247.1819
C     1.364792    0.538078   -0.018137    0.009353   -0.035909    0.003005
C     1.298751   -0.776115    0.092691   -0.148604   -0.110346    0.004976
N    -0.032367   -1.449113    0.118026    0.099928   -0.011280    0.003618
C    -1.278363   -0.650442    0.010379   -0.101319    0.247370   -0.022686
N    -1.050002    0.732383   -0.099051   -0.124830   -0.225095    0.015046
C     0.127651    1.385855   -0.120209    0.355756    0.048582    0.005655
O    -2.342342   -1.202274    0.024269    0.066405    0.034465   -0.001103
O     0.196878    2.593225   -0.216961   -0.029610    0.019495   -0.002465
H     2.101990   -1.511955    0.176096    0.184958    0.294575   -0.020174
H    -0.086982   -2.020948    0.982467   -0.246001    0.075185    0.015810
H    -1.824151    1.404830   -0.179816   -0.680160   -1.018468    0.068138
H     2.408010    0.894783   -0.022829   -0.643368    1.225847   -0.116780
H    -0.045943   -2.170355   -0.628269   -0.225930    0.067299   -0.041884
13
* Frequency(24) 1247.1819
C     1.365855    0.533997   -0.017795    0.009353   -0.035909    0.003005
C     1.281863   -0.788655    0.093257   -0.148604   -0.110346    0.004976
N    -0.021011   -1.450395    0.118437    0.099928   -0.011280    0.003618
C    -1.289878   -0.622329    0.007801   -0.101319    0.247370   -0.022686
N    -1.064188    0.706802   -0.097341   -0.124830   -0.225095    0.015046
C     0.168081    1.391376   -0.119566    0.355756    0.048582    0.005655
O    -2.334795   -1.198357    0.024143    0.066405    0.034465   -0.001103
O     0.193513    2.595440   -0.217241   -0.029610    0.019495   -0.002465
H     2.123010   -1.478478    0.173803    0.184958    0.294575   -0.020174
H    -0.114939   -2.012404    0.984263   -0.246001    0.075185    0.015810
H    -1.901448    1.289086   -0.172072   -0.680160   -1.018468    0.068138
H     2.334895    1.034094   -0.036100   -0.643368    1.225847   -0.116780
H    -0.071619   -2.162707   -0.633029   -0.225930    0.067299   -0.041884
