13
Coordinates from ORCA-job Uracil_1 E -414.693286573276
  C       1.338780      0.515080     -0.017080
  C       1.245260     -0.812400      0.092680
  N      -0.024150     -1.419660      0.116200
  C      -1.172370     -0.617430      0.008880
  N      -1.056250      0.719790     -0.106360
  C       0.138810      1.364060     -0.117600
  O      -2.193050     -1.270750      0.037880
  O       0.235340      2.577570     -0.204660
  H       2.150690     -1.416360      0.164630
  H      -0.217630     -1.982490      0.955840
  H      -1.894310      1.283150     -0.175340
  H       2.294440      1.030830     -0.037580
  H      -0.176220     -2.133920     -0.608930
13
Coordinates from ORCA-job Uracil_1 E -414.707797137786
  C       1.357650      0.521810     -0.015960
  C       1.275886     -0.805147      0.093186
  N      -0.016627     -1.441073      0.118528
  C      -1.236931     -0.620382      0.009179
  N      -1.072540      0.718908     -0.105184
  C       0.150989      1.376384     -0.116993
  O      -2.287810     -1.217372      0.030545
  O       0.227258      2.586371     -0.208657
  H       2.168254     -1.428666      0.164603
  H      -0.170379     -2.017410      0.973736
  H      -1.915141      1.294836     -0.178729
  H       2.316652      1.038720     -0.036427
  H      -0.127920     -2.169509     -0.619269
13
Coordinates from ORCA-job Uracil_1 E -414.711561763235
  C       1.364322      0.527837     -0.015475
  C       1.285359     -0.796796      0.092629
  N      -0.017943     -1.450741      0.118268
  C      -1.276767     -0.622813      0.009252
  N      -1.072354      0.713488     -0.103231
  C       0.161855      1.386970     -0.119345
  O      -2.328176     -1.191986      0.031642
  O       0.212241      2.591773     -0.213433
  H       2.154910     -1.451688      0.168630
  H      -0.136040     -2.025009      0.978928
  H      -1.913326      1.291445     -0.178359
  H       2.327351      1.039700     -0.033328
  H      -0.092091     -2.174710     -0.627619
13
Coordinates from ORCA-job Uracil_1 E -414.712220237505
  C       1.365899      0.531888     -0.015357
  C       1.286086     -0.791195      0.093588
  N      -0.019383     -1.454355      0.118367
  C      -1.294738     -0.622700      0.009816
  N      -1.068189      0.709828     -0.100409
  C       0.167631      1.392656     -0.119017
  O      -2.342920     -1.187895      0.031127
  O       0.201983      2.595107     -0.218168
  H       2.138074     -1.468619      0.171792
  H      -0.118000     -2.024628      0.981685
  H      -1.907666      1.289567     -0.177065
  H       2.332252      1.038040     -0.033879
  H      -0.071690     -2.170223     -0.633918
13
Coordinates from ORCA-job Uracil_1 E -414.712288760270
  C       1.365979      0.533445     -0.015865
  C       1.284863     -0.789312      0.094251
  N      -0.019982     -1.454705      0.118172
  C      -1.297267     -0.621663      0.009759
  N      -1.066226      0.708626     -0.099405
  C       0.168714      1.393373     -0.121379
  O      -2.343370     -1.191160      0.031664
  O       0.198244      2.596072     -0.219078
  H       2.130654     -1.474419      0.173997
  H      -0.114406     -2.022745      0.982650
  H      -1.904787      1.289943     -0.175219
  H       2.333850      1.036742     -0.033754
  H      -0.066927     -2.166727     -0.637233
13
Coordinates from ORCA-job Uracil_1 E -414.712295745788
  C       1.366016      0.534264     -0.016006
  C       1.283968     -0.788441      0.095068
  N      -0.020340     -1.454388      0.118129
  C      -1.296808     -0.620830      0.010045
  N      -1.065652      0.708175     -0.097619
  C       0.168524      1.393221     -0.119784
  O      -2.341282     -1.194541      0.030604
  O       0.196419      2.595836     -0.222004
  H       2.127150     -1.476809      0.175150
  H      -0.114210     -2.021478      0.982974
  H      -1.903276      1.290877     -0.174038
  H       2.334839      1.035604     -0.034635
  H      -0.066007     -2.164021     -0.639321
13
Coordinates from ORCA-job Uracil_1 E -414.712302630932
  C       1.366114      0.534438     -0.016263
  C       1.283851     -0.788298      0.095160
  N      -0.020434     -1.454126      0.117855
  C      -1.296120     -0.620714      0.009988
  N      -1.065914      0.708049     -0.097407
  C       0.168243      1.392600     -0.121974
  O      -2.340100     -1.195767      0.031062
  O       0.195981      2.595522     -0.221891
  H       2.126738     -1.476939      0.176100
  H      -0.114786     -2.020966      0.982788
  H      -1.902996      1.291666     -0.172863
  H       2.335223      1.035189     -0.033904
  H      -0.066460     -2.163183     -0.640092
13
Coordinates from ORCA-job Uracil_1 E -414.712297408585
  C       1.366168      0.534447     -0.016224
  C       1.283998     -0.788298      0.095303
  N      -0.020434     -1.454038      0.117806
  C      -1.296002     -0.620865      0.010005
  N      -1.066216      0.708068     -0.096908
  C       0.168091      1.392487     -0.121433
  O      -2.339990     -1.195896      0.030681
  O       0.196008      2.595280     -0.222772
  H       2.127057     -1.476710      0.176281
  H      -0.115051     -2.021055      0.982609
  H      -1.903014      1.292035     -0.172535
  H       2.335346      1.035044     -0.034044
  H      -0.066622     -2.163030     -0.640208
