13
* (null), Energy   -1000.0000000
C     1.621188    0.403598    0.009016   -0.313484   -0.006943   -0.019218
C     1.539018   -0.919147    0.120543   -0.133528    0.051226    0.009534
N     0.234586   -1.584887    0.143046   -0.125256    0.375893   -0.045430
C    -1.040982   -0.751715    0.035244   -0.203643    0.147865   -0.017626
N    -0.811196    0.577219   -0.071669   -0.585442    0.347141   -0.037102
C     0.423111    1.261638   -0.096194   -0.184958    0.056709   -0.018747
O    -2.084970   -1.326745    0.055920    0.381569   -0.927600    0.090077
O     0.451027    2.464431   -0.197533    0.977404    0.023239    0.026007
H     2.382077   -1.607559    0.201521   -0.155706    0.033593    0.045456
H     0.139969   -2.151905    1.007849   -0.277080    0.359388   -0.081321
H    -1.647994    1.161186   -0.147295   -0.601538    0.338600   -0.030655
H     2.590366    0.904195   -0.008805   -0.434522    0.211603   -0.033038
H     0.188398   -2.293879   -0.614969   -0.268181    0.398407   -0.047284
13
* Frequency(9)  394.3108
C     1.585562    0.402809    0.006832   -0.313484   -0.006943   -0.019218
C     1.523843   -0.913326    0.121626   -0.133528    0.051226    0.009534
N     0.220351   -1.542169    0.137883   -0.125256    0.375893   -0.045430
C    -1.064125   -0.734911    0.033241   -0.203643    0.147865   -0.017626
N    -0.877729    0.616670   -0.075885   -0.585442    0.347141   -0.037102
C     0.402092    1.268083   -0.098324   -0.184958    0.056709   -0.018747
O    -2.041606   -1.432162    0.066157    0.381569   -0.927600    0.090077
O     0.562104    2.467072   -0.194577    0.977404    0.023239    0.026007
H     2.364382   -1.603741    0.206687   -0.155706    0.033593    0.045456
H     0.108480   -2.111062    0.998607   -0.277080    0.359388   -0.081321
H    -1.716356    1.199666   -0.150779   -0.601538    0.338600   -0.030655
H     2.540985    0.928242   -0.012559   -0.434522    0.211603   -0.033038
H     0.157920   -2.248602   -0.620342   -0.268181    0.398407   -0.047284
13
* Frequency(9)  394.3108
C     1.553797    0.402106    0.004885   -0.313484   -0.006943   -0.019218
C     1.510313   -0.908135    0.122592   -0.133528    0.051226    0.009534
N     0.207659   -1.504080    0.133280   -0.125256    0.375893   -0.045430
C    -1.084760   -0.719927    0.031455   -0.203643    0.147865   -0.017626
N    -0.937051    0.651845   -0.079645   -0.585442    0.347141   -0.037102
C     0.383350    1.273829   -0.100224   -0.184958    0.056709   -0.018747
O    -2.002942   -1.526155    0.075285    0.381569   -0.927600    0.090077
O     0.661144    2.469426   -0.191942    0.977404    0.023239    0.026007
H     2.348604   -1.600337    0.211293   -0.155706    0.033593    0.045456
H     0.080404   -2.074645    0.990367   -0.277080    0.359388   -0.081321
H    -1.777309    1.233976   -0.153886   -0.601538    0.338600   -0.030655
H     2.496955    0.949684   -0.015907   -0.434522    0.211603   -0.033038
H     0.130746   -2.208231   -0.625134   -0.268181    0.398407   -0.047284
13
* Frequency(9)  394.3108
C     1.529335    0.401564    0.003385   -0.313484   -0.006943   -0.019218
C     1.499893   -0.904138    0.123336   -0.133528    0.051226    0.009534
N     0.197885   -1.474747    0.129735   -0.125256    0.375893   -0.045430
C    -1.100651   -0.708389    0.030080   -0.203643    0.147865   -0.017626
N    -0.982736    0.678934   -0.082540   -0.585442    0.347141   -0.037102
C     0.368917    1.278255   -0.101687   -0.184958    0.056709   -0.018747
O    -1.973167   -1.598539    0.082314    0.381569   -0.927600    0.090077
O     0.737415    2.471240   -0.189913    0.977404    0.023239    0.026007
H     2.336454   -1.597716    0.214840   -0.155706    0.033593    0.045456
H     0.058782   -2.046601    0.984021   -0.277080    0.359388   -0.081321
H    -1.824250    1.260399   -0.156278   -0.601538    0.338600   -0.030655
H     2.463047    0.966196   -0.018485   -0.434522    0.211603   -0.033038
H     0.109818   -2.177142   -0.628823   -0.268181    0.398407   -0.047284
13
* Frequency(9)  394.3108
C     1.514826    0.401242    0.002496   -0.313484   -0.006943   -0.019218
C     1.493713   -0.901767    0.123777   -0.133528    0.051226    0.009534
N     0.192088   -1.457350    0.127632   -0.125256    0.375893   -0.045430
C    -1.110076   -0.701545    0.029264   -0.203643    0.147865   -0.017626
N    -1.009831    0.695000   -0.084257   -0.585442    0.347141   -0.037102
C     0.360357    1.280879   -0.102554   -0.184958    0.056709   -0.018747
O    -1.955507   -1.641470    0.086483    0.381569   -0.927600    0.090077
O     0.782651    2.472315   -0.188709    0.977404    0.023239    0.026007
H     2.329247   -1.596161    0.216943   -0.155706    0.033593    0.045456
H     0.045958   -2.029968    0.980257   -0.277080    0.359388   -0.081321
H    -1.852090    1.276070   -0.157697   -0.601538    0.338600   -0.030655
H     2.442937    0.975990   -0.020014   -0.434522    0.211603   -0.033038
H     0.097406   -2.158703   -0.631012   -0.268181    0.398407   -0.047284
13
* Frequency(9)  394.3108
C     1.511843    0.401176    0.002313   -0.313484   -0.006943   -0.019218
C     1.492443   -0.901279    0.123868   -0.133528    0.051226    0.009534
N     0.190896   -1.453774    0.127200   -0.125256    0.375893   -0.045430
C    -1.112014   -0.700139    0.029096   -0.203643    0.147865   -0.017626
N    -1.015401    0.698303   -0.084610   -0.585442    0.347141   -0.037102
C     0.358597    1.281419   -0.102733   -0.184958    0.056709   -0.018747
O    -1.951877   -1.650296    0.087340    0.381569   -0.927600    0.090077
O     0.791950    2.472536   -0.188462    0.977404    0.023239    0.026007
H     2.327766   -1.595841    0.217376   -0.155706    0.033593    0.045456
H     0.043322   -2.026548    0.979484   -0.277080    0.359388   -0.081321
H    -1.857813    1.279291   -0.157988   -0.601538    0.338600   -0.030655
H     2.438803    0.978003   -0.020328   -0.434522    0.211603   -0.033038
H     0.094855   -2.154912   -0.631462   -0.268181    0.398407   -0.047284
13
* Frequency(9)  394.3108
C     1.520710    0.401373    0.002856   -0.313484   -0.006943   -0.019218
C     1.496220   -0.902728    0.123599   -0.133528    0.051226    0.009534
N     0.194439   -1.464405    0.128485   -0.125256    0.375893   -0.045430
C    -1.106254   -0.704321    0.029595   -0.203643    0.147865   -0.017626
N    -0.998843    0.688485   -0.083561   -0.585442    0.347141   -0.037102
C     0.363828    1.279815   -0.102203   -0.184958    0.056709   -0.018747
O    -1.962669   -1.624060    0.084792    0.381569   -0.927600    0.090077
O     0.764306    2.471879   -0.189197    0.977404    0.023239    0.026007
H     2.332170   -1.596792    0.216090   -0.155706    0.033593    0.045456
H     0.051159   -2.036713    0.981784   -0.277080    0.359388   -0.081321
H    -1.840799    1.269714   -0.157121   -0.601538    0.338600   -0.030655
H     2.451093    0.972018   -0.019394   -0.434522    0.211603   -0.033038
H     0.102440   -2.166181   -0.630124   -0.268181    0.398407   -0.047284
13
* Frequency(9)  394.3108
C     1.540465    0.401810    0.004067   -0.313484   -0.006943   -0.019218
C     1.504634   -0.905956    0.122998   -0.133528    0.051226    0.009534
N     0.202332   -1.488093    0.131348   -0.125256    0.375893   -0.045430
C    -1.093421   -0.713639    0.030706   -0.203643    0.147865   -0.017626
N    -0.961950    0.666609   -0.081223   -0.585442    0.347141   -0.037102
C     0.375484    1.276241   -0.101021   -0.184958    0.056709   -0.018747
O    -1.986714   -1.565605    0.079115    0.381569   -0.927600    0.090077
O     0.702712    2.470415   -0.190836    0.977404    0.023239    0.026007
H     2.341982   -1.598908    0.213226   -0.155706    0.033593    0.045456
H     0.068620   -2.059361    0.986908   -0.277080    0.359388   -0.081321
H    -1.802892    1.248377   -0.155189   -0.601538    0.338600   -0.030655
H     2.478475    0.958683   -0.017312   -0.434522    0.211603   -0.033038
H     0.119340   -2.191287   -0.627145   -0.268181    0.398407   -0.047284
13
* Frequency(9)  394.3108
C     1.568967    0.402442    0.005815   -0.313484   -0.006943   -0.019218
C     1.516775   -0.910614    0.122131   -0.133528    0.051226    0.009534
N     0.213721   -1.522270    0.135478   -0.125256    0.375893   -0.045430
C    -1.074905   -0.727083    0.032308   -0.203643    0.147865   -0.017626
N    -0.908720    0.635046   -0.077849   -0.585442    0.347141   -0.037102
C     0.392300    1.271085   -0.099317   -0.184958    0.056709   -0.018747
O    -2.021407   -1.481266    0.070926    0.381569   -0.927600    0.090077
O     0.613845    2.468302   -0.193201    0.977404    0.023239    0.026007
H     2.356139   -1.601963    0.209093   -0.155706    0.033593    0.045456
H     0.093812   -2.092037    0.994302   -0.277080    0.359388   -0.081321
H    -1.748199    1.217591   -0.152402   -0.601538    0.338600   -0.030655
H     2.517982    0.939444   -0.014308   -0.434522    0.211603   -0.033038
H     0.143724   -2.227511   -0.622845   -0.268181    0.398407   -0.047284
13
* Frequency(9)  394.3108
C     1.603129    0.403198    0.007909   -0.313484   -0.006943   -0.019218
C     1.531326   -0.916196    0.121092   -0.133528    0.051226    0.009534
N     0.227370   -1.563232    0.140429   -0.125256    0.375893   -0.045430
C    -1.052713   -0.743196    0.034229   -0.203643    0.147865   -0.017626
N    -0.844923    0.597217   -0.073806   -0.585442    0.347141   -0.037102
C     0.412456    1.264905   -0.097274   -0.184958    0.056709   -0.018747
O    -2.062988   -1.380182    0.061110    0.381569   -0.927600    0.090077
O     0.507334    2.465769   -0.196035    0.977404    0.023239    0.026007
H     2.373107   -1.605624    0.204139   -0.155706    0.033593    0.045456
H     0.124007   -2.131201    1.003164   -0.277080    0.359388   -0.081321
H    -1.682648    1.180692   -0.149061   -0.601538    0.338600   -0.030655
H     2.565334    0.916385   -0.010708   -0.434522    0.211603   -0.033038
H     0.172948   -2.270927   -0.617693   -0.268181    0.398407   -0.047284
13
* Frequency(9)  394.3108
C     1.639247    0.403998    0.010123   -0.313484   -0.006943   -0.019218
C     1.546710   -0.922098    0.119993   -0.133528    0.051226    0.009534
N     0.241802   -1.606541    0.145663   -0.125256    0.375893   -0.045430
C    -1.029250   -0.760233    0.036260   -0.203643    0.147865   -0.017626
N    -0.777470    0.557221   -0.069531   -0.585442    0.347141   -0.037102
C     0.433766    1.258371   -0.095114   -0.184958    0.056709   -0.018747
O    -2.106951   -1.273308    0.050731    0.381569   -0.927600    0.090077
O     0.394721    2.463092   -0.199031    0.977404    0.023239    0.026007
H     2.391047   -1.609494    0.198902   -0.155706    0.033593    0.045456
H     0.155931   -2.172608    1.012533   -0.277080    0.359388   -0.081321
H    -1.613341    1.141680   -0.145529   -0.601538    0.338600   -0.030655
H     2.615398    0.892005   -0.006901   -0.434522    0.211603   -0.033038
H     0.203847   -2.316830   -0.612245   -0.268181    0.398407   -0.047284
13
* Frequency(9)  394.3108
C     1.673409    0.404755    0.012217   -0.313484   -0.006943   -0.019218
C     1.561261   -0.927681    0.118955   -0.133528    0.051226    0.009534
N     0.255451   -1.647504    0.150614   -0.125256    0.375893   -0.045430
C    -1.007059   -0.776346    0.038181   -0.203643    0.147865   -0.017626
N    -0.713673    0.519392   -0.065488   -0.585442    0.347141   -0.037102
C     0.453922    1.252191   -0.093071   -0.184958    0.056709   -0.018747
O    -2.148532   -1.172224    0.040915    0.381569   -0.927600    0.090077
O     0.288210    2.460559   -0.201865    0.977404    0.023239    0.026007
H     2.408015   -1.613155    0.193949   -0.155706    0.033593    0.045456
H     0.186125   -2.211772    1.021395   -0.277080    0.359388   -0.081321
H    -1.547789    1.104782   -0.142189   -0.601538    0.338600   -0.030655
H     2.662749    0.868946   -0.003301   -0.434522    0.211603   -0.033038
H     0.233072   -2.360246   -0.607092   -0.268181    0.398407   -0.047284
13
* Frequency(9)  394.3108
C     1.701911    0.405386    0.013965   -0.313484   -0.006943   -0.019218
C     1.573402   -0.932338    0.118088   -0.133528    0.051226    0.009534
N     0.266840   -1.681680    0.154744   -0.125256    0.375893   -0.045430
C    -0.988543   -0.789790    0.039783   -0.203643    0.147865   -0.017626
N    -0.660443    0.487829   -0.062115   -0.585442    0.347141   -0.037102
C     0.470738    1.247035   -0.091366   -0.184958    0.056709   -0.018747
O    -2.183225   -1.087885    0.032725    0.381569   -0.927600    0.090077
O     0.199343    2.458447   -0.204230    0.977404    0.023239    0.026007
H     2.422172   -1.616209    0.189816   -0.155706    0.033593    0.045456
H     0.211318   -2.244448    1.028789   -0.277080    0.359388   -0.081321
H    -1.493096    1.073995   -0.139402   -0.601538    0.338600   -0.030655
H     2.702257    0.849706   -0.000297   -0.434522    0.211603   -0.033038
H     0.257455   -2.396470   -0.602793   -0.268181    0.398407   -0.047284
13
* Frequency(9)  394.3108
C     1.721666    0.405824    0.015176   -0.313484   -0.006943   -0.019218
C     1.581816   -0.935566    0.117487   -0.133528    0.051226    0.009534
N     0.274733   -1.705368    0.157607   -0.125256    0.375893   -0.045430
C    -0.975710   -0.799108    0.040894   -0.203643    0.147865   -0.017626
N    -0.623550    0.465953   -0.059777   -0.585442    0.347141   -0.037102
C     0.482394    1.243462   -0.090185   -0.184958    0.056709   -0.018747
O    -2.207271   -1.029430    0.027049    0.381569   -0.927600    0.090077
O     0.137749    2.456982   -0.205869    0.977404    0.023239    0.026007
H     2.431984   -1.618326    0.186951   -0.155706    0.033593    0.045456
H     0.228779   -2.267096    1.033914   -0.277080    0.359388   -0.081321
H    -1.455189    1.052658   -0.137470   -0.601538    0.338600   -0.030655
H     2.729639    0.836372    0.001785   -0.434522    0.211603   -0.033038
H     0.274355   -2.421576   -0.599813   -0.268181    0.398407   -0.047284
13
* Frequency(9)  394.3108
C     1.730533    0.406020    0.015719   -0.313484   -0.006943   -0.019218
C     1.585593   -0.937015    0.117217   -0.133528    0.051226    0.009534
N     0.278276   -1.716000    0.158892   -0.125256    0.375893   -0.045430
C    -0.969950   -0.803291    0.041392   -0.203643    0.147865   -0.017626
N    -0.606992    0.456135   -0.058728   -0.585442    0.347141   -0.037102
C     0.487625    1.241858   -0.089654   -0.184958    0.056709   -0.018747
O    -2.218063   -1.003194    0.024501    0.381569   -0.927600    0.090077
O     0.110105    2.456325   -0.206604    0.977404    0.023239    0.026007
H     2.436388   -1.619276    0.185665   -0.155706    0.033593    0.045456
H     0.236616   -2.277261    1.036214   -0.277080    0.359388   -0.081321
H    -1.438175    1.043081   -0.136603   -0.601538    0.338600   -0.030655
H     2.741929    0.830387    0.002719   -0.434522    0.211603   -0.033038
H     0.281940   -2.432845   -0.598476   -0.268181    0.398407   -0.047284
13
* Frequency(9)  394.3108
C     1.727550    0.405954    0.015536   -0.313484   -0.006943   -0.019218
C     1.584322   -0.936528    0.117308   -0.133528    0.051226    0.009534
N     0.277084   -1.712423    0.158460   -0.125256    0.375893   -0.045430
C    -0.971888   -0.801884    0.041225   -0.203643    0.147865   -0.017626
N    -0.612562    0.459438   -0.059081   -0.585442    0.347141   -0.037102
C     0.485866    1.242397   -0.089833   -0.184958    0.056709   -0.018747
O    -2.214432   -1.012019    0.025358    0.381569   -0.927600    0.090077
O     0.119404    2.456546   -0.206357    0.977404    0.023239    0.026007
H     2.434906   -1.618956    0.186098   -0.155706    0.033593    0.045456
H     0.233979   -2.273841    1.035440   -0.277080    0.359388   -0.081321
H    -1.443898    1.046303   -0.136894   -0.601538    0.338600   -0.030655
H     2.737795    0.832400    0.002405   -0.434522    0.211603   -0.033038
H     0.279389   -2.429054   -0.598926   -0.268181    0.398407   -0.047284
13
* Frequency(9)  394.3108
C     1.713042    0.405633    0.014647   -0.313484   -0.006943   -0.019218
C     1.578143   -0.934157    0.117749   -0.133528    0.051226    0.009534
N     0.271287   -1.695026    0.156357   -0.125256    0.375893   -0.045430
C    -0.981313   -0.795040    0.040409   -0.203643    0.147865   -0.017626
N    -0.639657    0.475504   -0.060798   -0.585442    0.347141   -0.037102
C     0.477305    1.245022   -0.090700   -0.184958    0.056709   -0.018747
O    -2.196773   -1.054950    0.029527    0.381569   -0.927600    0.090077
O     0.164640    2.457621   -0.205153    0.977404    0.023239    0.026007
H     2.427700   -1.617402    0.188202   -0.155706    0.033593    0.045456
H     0.221156   -2.257208    1.031676   -0.277080    0.359388   -0.081321
H    -1.471739    1.061974   -0.138313   -0.601538    0.338600   -0.030655
H     2.717684    0.842193    0.000876   -0.434522    0.211603   -0.033038
H     0.266977   -2.410615   -0.601114   -0.268181    0.398407   -0.047284
13
* Frequency(9)  394.3108
C     1.688579    0.405091    0.013147   -0.313484   -0.006943   -0.019218
C     1.567723   -0.930159    0.118493   -0.133528    0.051226    0.009534
N     0.261513   -1.665694    0.152812   -0.125256    0.375893   -0.045430
C    -0.997204   -0.783502    0.039034   -0.203643    0.147865   -0.017626
N    -0.685341    0.502593   -0.063693   -0.585442    0.347141   -0.037102
C     0.462872    1.249447   -0.092163   -0.184958    0.056709   -0.018747
O    -2.166997   -1.127335    0.036556    0.381569   -0.927600    0.090077
O     0.240911    2.459435   -0.203124    0.977404    0.023239    0.026007
H     2.415550   -1.614780    0.191749   -0.155706    0.033593    0.045456
H     0.199534   -2.229164    1.025331   -0.277080    0.359388   -0.081321
H    -1.518679    1.088396   -0.140705   -0.601538    0.338600   -0.030655
H     2.683777    0.858706   -0.001702   -0.434522    0.211603   -0.033038
H     0.246050   -2.379526   -0.604804   -0.268181    0.398407   -0.047284
13
* Frequency(9)  394.3108
C     1.656814    0.404387    0.011200   -0.313484   -0.006943   -0.019218
C     1.554193   -0.924969    0.119459   -0.133528    0.051226    0.009534
N     0.248821   -1.627605    0.148209   -0.125256    0.375893   -0.045430
C    -1.017839   -0.768519    0.037248   -0.203643    0.147865   -0.017626
N    -0.744664    0.537768   -0.067452   -0.585442    0.347141   -0.037102
C     0.444131    1.255193   -0.094063   -0.184958    0.056709   -0.018747
O    -2.128333   -1.221328    0.045684    0.381569   -0.927600    0.090077
O     0.339951    2.461790   -0.200488    0.977404    0.023239    0.026007
H     2.399772   -1.611376    0.196355   -0.155706    0.033593    0.045456
H     0.171458   -2.192747    1.017090   -0.277080    0.359388   -0.081321
H    -1.579632    1.122706   -0.143812   -0.601538    0.338600   -0.030655
H     2.639747    0.880147   -0.005050   -0.434522    0.211603   -0.033038
H     0.218875   -2.339156   -0.609595   -0.268181    0.398407   -0.047284
13
* Frequency(9)  394.3108
C     1.621188    0.403598    0.009016   -0.313484   -0.006943   -0.019218
C     1.539018   -0.919147    0.120543   -0.133528    0.051226    0.009534
N     0.234586   -1.584887    0.143046   -0.125256    0.375893   -0.045430
C    -1.040982   -0.751715    0.035244   -0.203643    0.147865   -0.017626
N    -0.811196    0.577219   -0.071669   -0.585442    0.347141   -0.037102
C     0.423111    1.261638   -0.096194   -0.184958    0.056709   -0.018747
O    -2.084970   -1.326745    0.055920    0.381569   -0.927600    0.090077
O     0.451027    2.464431   -0.197533    0.977404    0.023239    0.026007
H     2.382077   -1.607559    0.201521   -0.155706    0.033593    0.045456
H     0.139969   -2.151905    1.007849   -0.277080    0.359388   -0.081321
H    -1.647994    1.161186   -0.147295   -0.601538    0.338600   -0.030655
H     2.590366    0.904195   -0.008805   -0.434522    0.211603   -0.033038
H     0.188398   -2.293879   -0.614969   -0.268181    0.398407   -0.047284
