13
Coordinates from ORCA-job Uracil_1 E -414.696243516391
  C       1.338780      0.515080     -0.017080
  C       1.245260     -0.812400      0.092680
  N      -0.024150     -1.419660      0.116200
  C      -1.172370     -0.617430      0.008880
  N      -1.056250      0.719790     -0.106360
  C       0.138810      1.364060     -0.117600
  O      -2.193050     -1.270750      0.037880
  O       0.235340      2.577570     -0.204660
  H       2.150690     -1.416360      0.164630
  H      -0.217630     -1.982490      0.955840
  H      -1.894310      1.283150     -0.175340
  H       2.294440      1.030830     -0.037580
  H      -0.176220     -2.133920     -0.608930
13
Coordinates from ORCA-job Uracil_1 E -414.710424197326
  C       1.357057      0.521213     -0.017176
  C       1.274513     -0.805378      0.093192
  N      -0.016384     -1.439835      0.118406
  C      -1.234888     -0.620492      0.007827
  N      -1.071565      0.718281     -0.105157
  C       0.151001      1.375528     -0.116891
  O      -2.285547     -1.218302      0.029337
  O       0.226314      2.586208     -0.207138
  H       2.165729     -1.429087      0.166480
  H      -0.170616     -2.014487      0.972231
  H      -1.914078      1.293663     -0.177041
  H       2.315911      1.037742     -0.038320
  H      -0.128107     -2.167584     -0.617190
13
Coordinates from ORCA-job Uracil_1 E -414.714185534533
  C       1.363870      0.527125     -0.017630
  C       1.283513     -0.796968      0.092988
  N      -0.017747     -1.447781      0.119017
  C      -1.273294     -0.623347      0.007404
  N      -1.071063      0.712463     -0.102911
  C       0.161941      1.385603     -0.118157
  O      -2.324577     -1.194555      0.025342
  O       0.210921      2.591577     -0.209135
  H       2.151386     -1.452735      0.168915
  H      -0.136586     -2.019352      0.978818
  H      -1.912087      1.289703     -0.176191
  H       2.326756      1.038386     -0.037970
  H      -0.093694     -2.172648     -0.621931
13
Coordinates from ORCA-job Uracil_1 E -414.714860878720
  C       1.365507      0.531226     -0.017925
  C       1.284049     -0.791593      0.092681
  N      -0.019359     -1.450597      0.119114
  C      -1.289507     -0.623627      0.007398
  N      -1.066661      0.708710     -0.100522
  C       0.167543      1.391164     -0.117493
  O      -2.337820     -1.191174      0.023840
  O       0.200384      2.595002     -0.211879
  H       2.134539     -1.469862      0.170607
  H      -0.118661     -2.016509      0.982735
  H      -1.906318      1.287441     -0.175738
  H       2.331584      1.037070     -0.037720
  H      -0.075940     -2.169779     -0.626537
13
Coordinates from ORCA-job Uracil_1 E -414.714745062879
  C       1.365556      0.532861     -0.018128
  C       1.282799     -0.789769      0.092489
  N      -0.020164     -1.450917      0.118976
  C      -1.291512     -0.622790      0.007417
  N      -1.064566      0.707478     -0.099584
  C       0.168543      1.392102     -0.119178
  O      -2.337985     -1.194274      0.024220
  O       0.196453      2.596079     -0.212521
  H       2.127023     -1.475913      0.171699
  H      -0.114661     -2.013952      0.984368
  H      -1.903329      1.287527     -0.174933
  H       2.333142      1.035905     -0.036917
  H      -0.071958     -2.166868     -0.629348
13
Coordinates from ORCA-job Uracil_1 E -414.714747791541
  C       1.365708      0.533767     -0.017913
  C       1.281906     -0.788868      0.092876
  N      -0.020743     -1.450718      0.118763
  C      -1.290815     -0.622187      0.007514
  N      -1.063704      0.706947     -0.098008
  C       0.168489      1.392064     -0.117885
  O      -2.335973     -1.197223      0.023752
  O       0.193973      2.595975     -0.215878
  H       2.123236     -1.478554      0.172663
  H      -0.114213     -2.012517      0.984808
  H      -1.901666      1.288143     -0.173587
  H       2.334318      1.034766     -0.036889
  H      -0.071175     -2.164125     -0.631657
13
Coordinates from ORCA-job Uracil_1 E -414.714750118878
  C       1.365820      0.533967     -0.017907
  C       1.281764     -0.788690      0.092999
  N      -0.020952     -1.450495      0.118491
  C      -1.290064     -0.622164      0.007673
  N      -1.063881      0.706796     -0.097838
  C       0.168253      1.391504     -0.120067
  O      -2.334923     -1.198236      0.024329
  O       0.193437      2.595701     -0.216106
  H       2.122756     -1.478714      0.173495
  H      -0.114680     -2.012134      0.984562
  H      -1.901400      1.288752     -0.172437
  H       2.334754      1.034300     -0.036001
  H      -0.071543     -2.163118     -0.632633
13
Coordinates from ORCA-job Uracil_1 E -414.714747865897
  C       1.365855      0.533997     -0.017795
  C       1.281863     -0.788655      0.093257
  N      -0.021011     -1.450395      0.118437
  C      -1.289878     -0.622329      0.007801
  N      -1.064188      0.706802     -0.097341
  C       0.168081      1.391376     -0.119566
  O      -2.334795     -1.198357      0.024143
  O       0.193513      2.595440     -0.217241
  H       2.123010     -1.478478      0.173803
  H      -0.114939     -2.012404      0.984263
  H      -1.901448      1.289086     -0.172072
  H       2.334895      1.034094     -0.036100
  H      -0.071619     -2.162707     -0.633029
