13
* (null), Energy   -1000.0000000
C     1.365855    0.533997   -0.017795   -0.083579   -0.061659    0.003197
C     1.281863   -0.788655    0.093257   -0.110814    0.110694   -0.012197
N    -0.021011   -1.450395    0.118437    0.002328   -0.000664    0.000081
C    -1.289878   -0.622329    0.007801    0.001465    0.000245    0.000012
N    -1.064188    0.706802   -0.097341    0.000388   -0.000056    0.000009
C     0.168081    1.391376   -0.119566    0.002230   -0.002774    0.000274
O    -2.334795   -1.198357    0.024143   -0.000006   -0.000085   -0.000001
O     0.193513    2.595440   -0.217241   -0.000154    0.000826   -0.000075
H     2.123010   -1.478478    0.173803    1.287655   -1.057342    0.122380
H    -0.114939   -2.012404    0.984263   -0.006632    0.000415   -0.006611
H    -1.901448    1.289086   -0.172072    0.002361   -0.000531    0.000105
H     2.334895    1.034094   -0.036100    0.960791    0.499837   -0.018679
H    -0.071619   -2.162707   -0.633029   -0.007079    0.001724    0.006581
13
* Frequency(35) 3249.2131
C     1.356357    0.526990   -0.017432   -0.083579   -0.061659    0.003197
C     1.269270   -0.776076    0.091871   -0.110814    0.110694   -0.012197
N    -0.020746   -1.450471    0.118447    0.002328   -0.000664    0.000081
C    -1.289711   -0.622302    0.007802    0.001465    0.000245    0.000012
N    -1.064144    0.706795   -0.097340    0.000388   -0.000056    0.000009
C     0.168335    1.391061   -0.119535    0.002230   -0.002774    0.000274
O    -2.334796   -1.198367    0.024143   -0.000006   -0.000085   -0.000001
O     0.193495    2.595534   -0.217250   -0.000154    0.000826   -0.000075
H     2.269345   -1.598639    0.187711    1.287655   -1.057342    0.122380
H    -0.115692   -2.012357    0.983512   -0.006632    0.000415   -0.006611
H    -1.901180    1.289026   -0.172060    0.002361   -0.000531    0.000105
H     2.444084    1.090898   -0.038223    0.960791    0.499837   -0.018679
H    -0.072424   -2.162511   -0.632281   -0.007079    0.001724    0.006581
13
* Frequency(35) 3249.2131
C     1.347888    0.520742   -0.017108   -0.083579   -0.061659    0.003197
C     1.258041   -0.764859    0.090635   -0.110814    0.110694   -0.012197
N    -0.020510   -1.450538    0.118455    0.002328   -0.000664    0.000081
C    -1.289563   -0.622277    0.007804    0.001465    0.000245    0.000012
N    -1.064104    0.706790   -0.097339    0.000388   -0.000056    0.000009
C     0.168560    1.390780   -0.119507    0.002230   -0.002774    0.000274
O    -2.334796   -1.198375    0.024143   -0.000006   -0.000085   -0.000001
O     0.193480    2.595618   -0.217257   -0.000154    0.000826   -0.000075
H     2.399823   -1.705779    0.200112    1.287655   -1.057342    0.122380
H    -0.116364   -2.012315    0.982842   -0.006632    0.000415   -0.006611
H    -1.900940    1.288972   -0.172050    0.002361   -0.000531    0.000105
H     2.541440    1.141546   -0.040115    0.960791    0.499837   -0.018679
H    -0.073141   -2.162336   -0.631614   -0.007079    0.001724    0.006581
13
* Frequency(35) 3249.2131
C     1.341365    0.515931   -0.016859   -0.083579   -0.061659    0.003197
C     1.249394   -0.756221    0.089683   -0.110814    0.110694   -0.012197
N    -0.020329   -1.450590    0.118461    0.002328   -0.000664    0.000081
C    -1.289448   -0.622258    0.007805    0.001465    0.000245    0.000012
N    -1.064074    0.706785   -0.097339    0.000388   -0.000056    0.000009
C     0.168734    1.390563   -0.119486    0.002230   -0.002774    0.000274
O    -2.334797   -1.198382    0.024143   -0.000006   -0.000085   -0.000001
O     0.193468    2.595682   -0.217263   -0.000154    0.000826   -0.000075
H     2.500303   -1.788288    0.209662    1.287655   -1.057342    0.122380
H    -0.116882   -2.012282    0.982326   -0.006632    0.000415   -0.006611
H    -1.900756    1.288930   -0.172042    0.002361   -0.000531    0.000105
H     2.616415    1.180551   -0.041573    0.960791    0.499837   -0.018679
H    -0.073693   -2.162201   -0.631100   -0.007079    0.001724    0.006581
13
* Frequency(35) 3249.2131
C     1.337497    0.513077   -0.016711   -0.083579   -0.061659    0.003197
C     1.244265   -0.751098    0.089119   -0.110814    0.110694   -0.012197
N    -0.020221   -1.450620    0.118465    0.002328   -0.000664    0.000081
C    -1.289381   -0.622246    0.007805    0.001465    0.000245    0.000012
N    -1.064056    0.706783   -0.097338    0.000388   -0.000056    0.000009
C     0.168838    1.390435   -0.119473    0.002230   -0.002774    0.000274
O    -2.334797   -1.198386    0.024143   -0.000006   -0.000085   -0.000001
O     0.193461    2.595720   -0.217267   -0.000154    0.000826   -0.000075
H     2.559898   -1.837223    0.215326    1.287655   -1.057342    0.122380
H    -0.117189   -2.012263    0.982020   -0.006632    0.000415   -0.006611
H    -1.900647    1.288906   -0.172037    0.002361   -0.000531    0.000105
H     2.660882    1.203684   -0.042438    0.960791    0.499837   -0.018679
H    -0.074021   -2.162121   -0.630796   -0.007079    0.001724    0.006581
13
* Frequency(35) 3249.2131
C     1.336702    0.512490   -0.016680   -0.083579   -0.061659    0.003197
C     1.243211   -0.750045    0.089003   -0.110814    0.110694   -0.012197
N    -0.020199   -1.450627    0.118466    0.002328   -0.000664    0.000081
C    -1.289367   -0.622244    0.007805    0.001465    0.000245    0.000012
N    -1.064052    0.706782   -0.097338    0.000388   -0.000056    0.000009
C     0.168859    1.390408   -0.119471    0.002230   -0.002774    0.000274
O    -2.334797   -1.198387    0.024143   -0.000006   -0.000085   -0.000001
O     0.193459    2.595728   -0.217267   -0.000154    0.000826   -0.000075
H     2.572150   -1.847283    0.216490    1.287655   -1.057342    0.122380
H    -0.117252   -2.012259    0.981958   -0.006632    0.000415   -0.006611
H    -1.900624    1.288901   -0.172036    0.002361   -0.000531    0.000105
H     2.670023    1.208440   -0.042615    0.960791    0.499837   -0.018679
H    -0.074088   -2.162105   -0.630733   -0.007079    0.001724    0.006581
13
* Frequency(35) 3249.2131
C     1.339066    0.514234   -0.016771   -0.083579   -0.061659    0.003197
C     1.246345   -0.753176    0.089347   -0.110814    0.110694   -0.012197
N    -0.020265   -1.450608    0.118463    0.002328   -0.000664    0.000081
C    -1.289408   -0.622251    0.007805    0.001465    0.000245    0.000012
N    -1.064063    0.706784   -0.097338    0.000388   -0.000056    0.000009
C     0.168796    1.390487   -0.119478    0.002230   -0.002774    0.000274
O    -2.334797   -1.198384    0.024143   -0.000006   -0.000085   -0.000001
O     0.193463    2.595705   -0.217265   -0.000154    0.000826   -0.000075
H     2.535730   -1.817378    0.213029    1.287655   -1.057342    0.122380
H    -0.117064   -2.012271    0.982145   -0.006632    0.000415   -0.006611
H    -1.900691    1.288916   -0.172039    0.002361   -0.000531    0.000105
H     2.642848    1.194302   -0.042087    0.960791    0.499837   -0.018679
H    -0.073888   -2.162154   -0.630919   -0.007079    0.001724    0.006581
13
* Frequency(35) 3249.2131
C     1.344333    0.518120   -0.016972   -0.083579   -0.061659    0.003197
C     1.253328   -0.760151    0.090116   -0.110814    0.110694   -0.012197
N    -0.020411   -1.450566    0.118458    0.002328   -0.000664    0.000081
C    -1.289500   -0.622266    0.007804    0.001465    0.000245    0.000012
N    -1.064088    0.706787   -0.097339    0.000388   -0.000056    0.000009
C     0.168655    1.390662   -0.119496    0.002230   -0.002774    0.000274
O    -2.334797   -1.198379    0.024143   -0.000006   -0.000085   -0.000001
O     0.193473    2.595653   -0.217260   -0.000154    0.000826   -0.000075
H     2.454585   -1.750747    0.205317    1.287655   -1.057342    0.122380
H    -0.116646   -2.012297    0.982561   -0.006632    0.000415   -0.006611
H    -1.900840    1.288949   -0.172045    0.002361   -0.000531    0.000105
H     2.582302    1.162804   -0.040910    0.960791    0.499837   -0.018679
H    -0.073442   -2.162262   -0.631334   -0.007079    0.001724    0.006581
13
* Frequency(35) 3249.2131
C     1.351932    0.523726   -0.017263   -0.083579   -0.061659    0.003197
C     1.263403   -0.770216    0.091225   -0.110814    0.110694   -0.012197
N    -0.020623   -1.450506    0.118451    0.002328   -0.000664    0.000081
C    -1.289634   -0.622289    0.007803    0.001465    0.000245    0.000012
N    -1.064123    0.706792   -0.097340    0.000388   -0.000056    0.000009
C     0.168453    1.390914   -0.119521    0.002230   -0.002774    0.000274
O    -2.334796   -1.198371    0.024143   -0.000006   -0.000085   -0.000001
O     0.193487    2.595578   -0.217254   -0.000154    0.000826   -0.000075
H     2.337510   -1.654611    0.194190    1.287655   -1.057342    0.122380
H    -0.116043   -2.012335    0.983162   -0.006632    0.000415   -0.006611
H    -1.901055    1.288998   -0.172055    0.002361   -0.000531    0.000105
H     2.494945    1.117358   -0.039212    0.960791    0.499837   -0.018679
H    -0.072798   -2.162419   -0.631932   -0.007079    0.001724    0.006581
13
* Frequency(35) 3249.2131
C     1.361040    0.530445   -0.017611   -0.083579   -0.061659    0.003197
C     1.275479   -0.782279    0.092554   -0.110814    0.110694   -0.012197
N    -0.020877   -1.450433    0.118442    0.002328   -0.000664    0.000081
C    -1.289793   -0.622315    0.007802    0.001465    0.000245    0.000012
N    -1.064165    0.706798   -0.097341    0.000388   -0.000056    0.000009
C     0.168210    1.391216   -0.119551    0.002230   -0.002774    0.000274
O    -2.334795   -1.198362    0.024143   -0.000006   -0.000085   -0.000001
O     0.193504    2.595488   -0.217245   -0.000154    0.000826   -0.000075
H     2.197189   -1.539389    0.180854    1.287655   -1.057342    0.122380
H    -0.115321   -2.012380    0.983883   -0.006632    0.000415   -0.006611
H    -1.901312    1.289055   -0.172066    0.002361   -0.000531    0.000105
H     2.390244    1.062889   -0.037176    0.960791    0.499837   -0.018679
H    -0.072027   -2.162607   -0.632650   -0.007079    0.001724    0.006581
13
* Frequency(35) 3249.2131
C     1.370670    0.537549   -0.017980   -0.083579   -0.061659    0.003197
C     1.288247   -0.795032    0.093959   -0.110814    0.110694   -0.012197
N    -0.021145   -1.450357    0.118433    0.002328   -0.000664    0.000081
C    -1.289962   -0.622344    0.007800    0.001465    0.000245    0.000012
N    -1.064210    0.706805   -0.097342    0.000388   -0.000056    0.000009
C     0.167953    1.391536   -0.119582    0.002230   -0.002774    0.000274
O    -2.334795   -1.198352    0.024143   -0.000006   -0.000085   -0.000001
O     0.193522    2.595393   -0.217237   -0.000154    0.000826   -0.000075
H     2.048831   -1.417566    0.166753    1.287655   -1.057342    0.122380
H    -0.114556   -2.012428    0.984644   -0.006632    0.000415   -0.006611
H    -1.901584    1.289117   -0.172079    0.002361   -0.000531    0.000105
H     2.279545    1.005299   -0.035024    0.960791    0.499837   -0.018679
H    -0.071211   -2.162806   -0.633408   -0.007079    0.001724    0.006581
13
* Frequency(35) 3249.2131
C     1.379778    0.544269   -0.018328   -0.083579   -0.061659    0.003197
C     1.300322   -0.807095    0.095288   -0.110814    0.110694   -0.012197
N    -0.021398   -1.450284    0.118424    0.002328   -0.000664    0.000081
C    -1.290122   -0.622370    0.007799    0.001465    0.000245    0.000012
N    -1.064253    0.706811   -0.097343    0.000388   -0.000056    0.000009
C     0.167710    1.391838   -0.119612    0.002230   -0.002774    0.000274
O    -2.334794   -1.198343    0.024143   -0.000006   -0.000085   -0.000001
O     0.193538    2.595303   -0.217229   -0.000154    0.000826   -0.000075
H     1.908510   -1.302344    0.153417    1.287655   -1.057342    0.122380
H    -0.113834   -2.012473    0.985365   -0.006632    0.000415   -0.006611
H    -1.901841    1.289174   -0.172090    0.002361   -0.000531    0.000105
H     2.174845    0.950830   -0.032988    0.960791    0.499837   -0.018679
H    -0.070440   -2.162994   -0.634125   -0.007079    0.001724    0.006581
13
* Frequency(35) 3249.2131
C     1.387377    0.549875   -0.018619   -0.083579   -0.061659    0.003197
C     1.310398   -0.817159    0.096397   -0.110814    0.110694   -0.012197
N    -0.021610   -1.450224    0.118416    0.002328   -0.000664    0.000081
C    -1.290255   -0.622392    0.007798    0.001465    0.000245    0.000012
N    -1.064288    0.706816   -0.097343    0.000388   -0.000056    0.000009
C     0.167507    1.392090   -0.119637    0.002230   -0.002774    0.000274
O    -2.334794   -1.198335    0.024143   -0.000006   -0.000085   -0.000001
O     0.193552    2.595228   -0.217222   -0.000154    0.000826   -0.000075
H     1.791435   -1.206209    0.142290    1.287655   -1.057342    0.122380
H    -0.113231   -2.012511    0.985966   -0.006632    0.000415   -0.006611
H    -1.902056    1.289223   -0.172100    0.002361   -0.000531    0.000105
H     2.087488    0.905384   -0.031290    0.960791    0.499837   -0.018679
H    -0.069796   -2.163151   -0.634723   -0.007079    0.001724    0.006581
13
* Frequency(35) 3249.2131
C     1.392644    0.553760   -0.018820   -0.083579   -0.061659    0.003197
C     1.317381   -0.824135    0.097166   -0.110814    0.110694   -0.012197
N    -0.021757   -1.450182    0.118411    0.002328   -0.000664    0.000081
C    -1.290347   -0.622408    0.007797    0.001465    0.000245    0.000012
N    -1.064312    0.706820   -0.097344    0.000388   -0.000056    0.000009
C     0.167366    1.392265   -0.119654    0.002230   -0.002774    0.000274
O    -2.334793   -1.198330    0.024143   -0.000006   -0.000085   -0.000001
O     0.193562    2.595176   -0.217217   -0.000154    0.000826   -0.000075
H     1.710290   -1.139578    0.134578    1.287655   -1.057342    0.122380
H    -0.112813   -2.012537    0.986382   -0.006632    0.000415   -0.006611
H    -1.902205    1.289256   -0.172106    0.002361   -0.000531    0.000105
H     2.026941    0.873886   -0.030113    0.960791    0.499837   -0.018679
H    -0.069350   -2.163259   -0.635138   -0.007079    0.001724    0.006581
13
* Frequency(35) 3249.2131
C     1.395008    0.555504   -0.018911   -0.083579   -0.061659    0.003197
C     1.320515   -0.827266    0.097511   -0.110814    0.110694   -0.012197
N    -0.021823   -1.450164    0.118409    0.002328   -0.000664    0.000081
C    -1.290388   -0.622415    0.007797    0.001465    0.000245    0.000012
N    -1.064323    0.706821   -0.097344    0.000388   -0.000056    0.000009
C     0.167303    1.392344   -0.119662    0.002230   -0.002774    0.000274
O    -2.334793   -1.198328    0.024143   -0.000006   -0.000085   -0.000001
O     0.193566    2.595152   -0.217215   -0.000154    0.000826   -0.000075
H     1.673870   -1.109672    0.131117    1.287655   -1.057342    0.122380
H    -0.112625   -2.012549    0.986569   -0.006632    0.000415   -0.006611
H    -1.902271    1.289271   -0.172109    0.002361   -0.000531    0.000105
H     1.999766    0.859748   -0.029585    0.960791    0.499837   -0.018679
H    -0.069150   -2.163308   -0.635324   -0.007079    0.001724    0.006581
13
* Frequency(35) 3249.2131
C     1.394213    0.554918   -0.018880   -0.083579   -0.061659    0.003197
C     1.319461   -0.826213    0.097395   -0.110814    0.110694   -0.012197
N    -0.021800   -1.450170    0.118410    0.002328   -0.000664    0.000081
C    -1.290375   -0.622412    0.007797    0.001465    0.000245    0.000012
N    -1.064320    0.706821   -0.097344    0.000388   -0.000056    0.000009
C     0.167325    1.392317   -0.119659    0.002230   -0.002774    0.000274
O    -2.334793   -1.198328    0.024143   -0.000006   -0.000085   -0.000001
O     0.193565    2.595160   -0.217216   -0.000154    0.000826   -0.000075
H     1.686122   -1.119732    0.132281    1.287655   -1.057342    0.122380
H    -0.112688   -2.012545    0.986506   -0.006632    0.000415   -0.006611
H    -1.902249    1.289266   -0.172108    0.002361   -0.000531    0.000105
H     2.008908    0.864504   -0.029762    0.960791    0.499837   -0.018679
H    -0.069217   -2.163292   -0.635262   -0.007079    0.001724    0.006581
13
* Frequency(35) 3249.2131
C     1.390344    0.552064   -0.018732   -0.083579   -0.061659    0.003197
C     1.314332   -0.821090    0.096830   -0.110814    0.110694   -0.012197
N    -0.021693   -1.450201    0.118413    0.002328   -0.000664    0.000081
C    -1.290307   -0.622401    0.007798    0.001465    0.000245    0.000012
N    -1.064302    0.706818   -0.097344    0.000388   -0.000056    0.000009
C     0.167428    1.392189   -0.119647    0.002230   -0.002774    0.000274
O    -2.334793   -1.198332    0.024143   -0.000006   -0.000085   -0.000001
O     0.193558    2.595198   -0.217219   -0.000154    0.000826   -0.000075
H     1.745717   -1.168668    0.137945    1.287655   -1.057342    0.122380
H    -0.112995   -2.012526    0.986200   -0.006632    0.000415   -0.006611
H    -1.902140    1.289242   -0.172103    0.002361   -0.000531    0.000105
H     2.053375    0.887638   -0.030627    0.960791    0.499837   -0.018679
H    -0.069545   -2.163212   -0.634957   -0.007079    0.001724    0.006581
13
* Frequency(35) 3249.2131
C     1.383822    0.547252   -0.018483   -0.083579   -0.061659    0.003197
C     1.305685   -0.812452    0.095879   -0.110814    0.110694   -0.012197
N    -0.021511   -1.450252    0.118420    0.002328   -0.000664    0.000081
C    -1.290192   -0.622382    0.007799    0.001465    0.000245    0.000012
N    -1.064271    0.706814   -0.097343    0.000388   -0.000056    0.000009
C     0.167602    1.391972   -0.119625    0.002230   -0.002774    0.000274
O    -2.334794   -1.198339    0.024143   -0.000006   -0.000085   -0.000001
O     0.193546    2.595263   -0.217225   -0.000154    0.000826   -0.000075
H     1.846197   -1.251176    0.147495    1.287655   -1.057342    0.122380
H    -0.113513   -2.012493    0.985684   -0.006632    0.000415   -0.006611
H    -1.901955    1.289200   -0.172095    0.002361   -0.000531    0.000105
H     2.128349    0.926642   -0.032084    0.960791    0.499837   -0.018679
H    -0.070097   -2.163077   -0.634443   -0.007079    0.001724    0.006581
13
* Frequency(35) 3249.2131
C     1.375353    0.541005   -0.018159   -0.083579   -0.061659    0.003197
C     1.294456   -0.801235    0.094643   -0.110814    0.110694   -0.012197
N    -0.021275   -1.450320    0.118428    0.002328   -0.000664    0.000081
C    -1.290044   -0.622357    0.007800    0.001465    0.000245    0.000012
N    -1.064232    0.706808   -0.097342    0.000388   -0.000056    0.000009
C     0.167828    1.391691   -0.119597    0.002230   -0.002774    0.000274
O    -2.334794   -1.198347    0.024143   -0.000006   -0.000085   -0.000001
O     0.193530    2.595346   -0.217233   -0.000154    0.000826   -0.000075
H     1.976675   -1.358316    0.159896    1.287655   -1.057342    0.122380
H    -0.114185   -2.012451    0.985015   -0.006632    0.000415   -0.006611
H    -1.901716    1.289146   -0.172084    0.002361   -0.000531    0.000105
H     2.225706    0.977290   -0.033977    0.960791    0.499837   -0.018679
H    -0.070814   -2.162902   -0.633777   -0.007079    0.001724    0.006581
13
* Frequency(35) 3249.2131
C     1.365855    0.533997   -0.017795   -0.083579   -0.061659    0.003197
C     1.281863   -0.788655    0.093257   -0.110814    0.110694   -0.012197
N    -0.021011   -1.450395    0.118437    0.002328   -0.000664    0.000081
C    -1.289878   -0.622329    0.007801    0.001465    0.000245    0.000012
N    -1.064188    0.706802   -0.097341    0.000388   -0.000056    0.000009
C     0.168081    1.391376   -0.119566    0.002230   -0.002774    0.000274
O    -2.334795   -1.198357    0.024143   -0.000006   -0.000085   -0.000001
O     0.193513    2.595440   -0.217241   -0.000154    0.000826   -0.000075
H     2.123010   -1.478478    0.173803    1.287655   -1.057342    0.122380
H    -0.114939   -2.012404    0.984263   -0.006632    0.000415   -0.006611
H    -1.901448    1.289086   -0.172072    0.002361   -0.000531    0.000105
H     2.334895    1.034094   -0.036100    0.960791    0.499837   -0.018679
H    -0.071619   -2.162707   -0.633029   -0.007079    0.001724    0.006581
