13
* (null), Energy   -1000.0000000
C     1.365855    0.533997   -0.017795   -0.440644   -0.090477   -0.001549
C     1.281863   -0.788655    0.093257    0.444506   -0.098307    0.019108
N    -0.021011   -1.450395    0.118437    0.448064   -0.178698    0.028759
C    -1.289878   -0.622329    0.007801    0.175466    0.093168   -0.005607
N    -1.064188    0.706802   -0.097341   -0.407840    0.137701   -0.024467
C     0.168081    1.391376   -0.119566   -0.518603   -0.245763    0.007321
O    -2.334795   -1.198357    0.024143   -0.001119    0.533736   -0.043988
O     0.193513    2.595440   -0.217241    0.219213   -0.265845    0.027359
H     2.123010   -1.478478    0.173803    0.728668    0.238136    0.000115
H    -0.114939   -2.012404    0.984263    0.372117   -0.135836    0.043449
H    -1.901448    1.289086   -0.172072   -0.639133   -0.182015   -0.006686
H     2.334895    1.034094   -0.036100   -0.812982    0.615448   -0.073272
H    -0.071619   -2.162707   -0.633029    0.373490   -0.150275    0.011033
13
* Frequency(12)  531.2003
C     1.315778    0.523715   -0.017971   -0.440644   -0.090477   -0.001549
C     1.332379   -0.799828    0.095428    0.444506   -0.098307    0.019108
N     0.029909   -1.470703    0.121706    0.448064   -0.178698    0.028759
C    -1.269937   -0.611741    0.007164    0.175466    0.093168   -0.005607
N    -1.110537    0.722451   -0.100122   -0.407840    0.137701   -0.024467
C     0.109145    1.363446   -0.118734   -0.518603   -0.245763    0.007321
O    -2.334922   -1.137701    0.019144   -0.001119    0.533736   -0.043988
O     0.218425    2.565228   -0.214132    0.219213   -0.265845    0.027359
H     2.205819   -1.451415    0.173817    0.728668    0.238136    0.000115
H    -0.072649   -2.027841    0.989201    0.372117   -0.135836    0.043449
H    -1.974082    1.268401   -0.172832   -0.639133   -0.182015   -0.006686
H     2.242504    1.104036   -0.044427   -0.812982    0.615448   -0.073272
H    -0.029174   -2.179785   -0.631775    0.373490   -0.150275    0.011033
13
* Frequency(12)  531.2003
C     1.271128    0.514547   -0.018128   -0.440644   -0.090477   -0.001549
C     1.377420   -0.809789    0.097364    0.444506   -0.098307    0.019108
N     0.075312   -1.488810    0.124620    0.448064   -0.178698    0.028759
C    -1.252157   -0.602301    0.006596    0.175466    0.093168   -0.005607
N    -1.151863    0.736404   -0.102601   -0.407840    0.137701   -0.024467
C     0.056595    1.338543   -0.117992   -0.518603   -0.245763    0.007321
O    -2.335036   -1.083617    0.014687   -0.001119    0.533736   -0.043988
O     0.240638    2.538290   -0.211360    0.219213   -0.265845    0.027359
H     2.279655   -1.427285    0.173828    0.728668    0.238136    0.000115
H    -0.034943   -2.041605    0.993604    0.372117   -0.135836    0.043449
H    -2.038845    1.249957   -0.173510   -0.639133   -0.182015   -0.006686
H     2.160124    1.166400   -0.051852   -0.812982    0.615448   -0.073272
H     0.008672   -2.195012   -0.630657    0.373490   -0.150275    0.011033
13
* Frequency(12)  531.2003
C     1.236743    0.507487   -0.018249   -0.440644   -0.090477   -0.001549
C     1.412107   -0.817460    0.098856    0.444506   -0.098307    0.019108
N     0.110276   -1.502755    0.126864    0.448064   -0.178698    0.028759
C    -1.238465   -0.595030    0.006158    0.175466    0.093168   -0.005607
N    -1.183688    0.747149   -0.104510   -0.407840    0.137701   -0.024467
C     0.016126    1.319365   -0.117421   -0.518603   -0.245763    0.007321
O    -2.335123   -1.041968    0.011254   -0.001119    0.533736   -0.043988
O     0.257744    2.517545   -0.209225    0.219213   -0.265845    0.027359
H     2.336516   -1.408702    0.173837    0.728668    0.238136    0.000115
H    -0.005905   -2.052205    0.996994    0.372117   -0.135836    0.043449
H    -2.088719    1.235754   -0.174032   -0.639133   -0.182015   -0.006686
H     2.096684    1.214425   -0.057569   -0.812982    0.615448   -0.073272
H     0.037817   -2.206738   -0.629796    0.373490   -0.150275    0.011033
13
* Frequency(12)  531.2003
C     1.216349    0.503300   -0.018321   -0.440644   -0.090477   -0.001549
C     1.432680   -0.822010    0.099740    0.444506   -0.098307    0.019108
N     0.131013   -1.511025    0.128195    0.448064   -0.178698    0.028759
C    -1.230344   -0.590718    0.005899    0.175466    0.093168   -0.005607
N    -1.202564    0.753522   -0.105643   -0.407840    0.137701   -0.024467
C    -0.007876    1.307991   -0.117082   -0.518603   -0.245763    0.007321
O    -2.335175   -1.017266    0.009218   -0.001119    0.533736   -0.043988
O     0.267890    2.505242   -0.207958    0.219213   -0.265845    0.027359
H     2.370240   -1.397680    0.173842    0.728668    0.238136    0.000115
H     0.011317   -2.058492    0.999005    0.372117   -0.135836    0.043449
H    -2.118299    1.227330   -0.174341   -0.639133   -0.182015   -0.006686
H     2.059058    1.242909   -0.060960   -0.812982    0.615448   -0.073272
H     0.055103   -2.213693   -0.629285    0.373490   -0.150275    0.011033
13
* Frequency(12)  531.2003
C     1.212156    0.502439   -0.018336   -0.440644   -0.090477   -0.001549
C     1.436909   -0.822945    0.099922    0.444506   -0.098307    0.019108
N     0.135276   -1.512726    0.128469    0.448064   -0.178698    0.028759
C    -1.228674   -0.589832    0.005845    0.175466    0.093168   -0.005607
N    -1.206444    0.754833   -0.105875   -0.407840    0.137701   -0.024467
C    -0.012810    1.305653   -0.117013   -0.518603   -0.245763    0.007321
O    -2.335185   -1.012188    0.008800   -0.001119    0.533736   -0.043988
O     0.269975    2.502712   -0.207698    0.219213   -0.265845    0.027359
H     2.377173   -1.395415    0.173844    0.728668    0.238136    0.000115
H     0.014858   -2.059784    0.999419    0.372117   -0.135836    0.043449
H    -2.124380    1.225598   -0.174405   -0.639133   -0.182015   -0.006686
H     2.051323    1.248765   -0.061657   -0.812982    0.615448   -0.073272
H     0.058656   -2.215123   -0.629180    0.373490   -0.150275    0.011033
13
* Frequency(12)  531.2003
C     1.224619    0.504998   -0.018292   -0.440644   -0.090477   -0.001549
C     1.424336   -0.820165    0.099381    0.444506   -0.098307    0.019108
N     0.122603   -1.507671    0.127655    0.448064   -0.178698    0.028759
C    -1.233637   -0.592467    0.006004    0.175466    0.093168   -0.005607
N    -1.194909    0.750938   -0.105183   -0.407840    0.137701   -0.024467
C     0.001858    1.312604   -0.117220   -0.518603   -0.245763    0.007321
O    -2.335154   -1.027284    0.010044   -0.001119    0.533736   -0.043988
O     0.263775    2.510231   -0.208472    0.219213   -0.265845    0.027359
H     2.356563   -1.402150    0.173840    0.728668    0.238136    0.000115
H     0.004333   -2.055942    0.998190    0.372117   -0.135836    0.043449
H    -2.106303    1.230747   -0.174216   -0.639133   -0.182015   -0.006686
H     2.074317    1.231358   -0.059585   -0.812982    0.615448   -0.073272
H     0.048092   -2.210873   -0.629492    0.373490   -0.150275    0.011033
13
* Frequency(12)  531.2003
C     1.252388    0.510699   -0.018194   -0.440644   -0.090477   -0.001549
C     1.396325   -0.813970    0.098177    0.444506   -0.098307    0.019108
N     0.094367   -1.496410    0.125843    0.448064   -0.178698    0.028759
C    -1.244695   -0.598338    0.006357    0.175466    0.093168   -0.005607
N    -1.169208    0.742260   -0.103641   -0.407840    0.137701   -0.024467
C     0.034539    1.328091   -0.117681   -0.518603   -0.245763    0.007321
O    -2.335083   -1.060918    0.012816   -0.001119    0.533736   -0.043988
O     0.249961    2.526984   -0.210196    0.219213   -0.265845    0.027359
H     2.310644   -1.417157    0.173833    0.728668    0.238136    0.000115
H    -0.019117   -2.047382    0.995452    0.372117   -0.135836    0.043449
H    -2.066027    1.242217   -0.173794   -0.639133   -0.182015   -0.006686
H     2.125549    1.192574   -0.054968   -0.812982    0.615448   -0.073272
H     0.024556   -2.201403   -0.630188    0.373490   -0.150275    0.011033
13
* Frequency(12)  531.2003
C     1.292452    0.518926   -0.018053   -0.440644   -0.090477   -0.001549
C     1.355909   -0.805032    0.096440    0.444506   -0.098307    0.019108
N     0.053629   -1.480163    0.123228    0.448064   -0.178698    0.028759
C    -1.260648   -0.606809    0.006867    0.175466    0.093168   -0.005607
N    -1.132126    0.729740   -0.101417   -0.407840    0.137701   -0.024467
C     0.081691    1.350436   -0.118347   -0.518603   -0.245763    0.007321
O    -2.334981   -1.109446    0.016816   -0.001119    0.533736   -0.043988
O     0.230030    2.551155   -0.212684    0.219213   -0.265845    0.027359
H     2.244393   -1.438809    0.173823    0.728668    0.238136    0.000115
H    -0.052951   -2.035032    0.991501    0.372117   -0.135836    0.043449
H    -2.007916    1.258766   -0.173186   -0.639133   -0.182015   -0.006686
H     2.199467    1.136616   -0.048306   -0.812982    0.615448   -0.073272
H    -0.009402   -2.187740   -0.631191    0.373490   -0.150275    0.011033
13
* Frequency(12)  531.2003
C     1.340470    0.528785   -0.017885   -0.440644   -0.090477   -0.001549
C     1.307470   -0.794319    0.094358    0.444506   -0.098307    0.019108
N     0.004801   -1.460690    0.120094    0.448064   -0.178698    0.028759
C    -1.279769   -0.616962    0.007478    0.175466    0.093168   -0.005607
N    -1.087683    0.714734   -0.098751   -0.407840    0.137701   -0.024467
C     0.138205    1.377218   -0.119145   -0.518603   -0.245763    0.007321
O    -2.334859   -1.167610    0.021609   -0.001119    0.533736   -0.043988
O     0.206141    2.580125   -0.215665    0.219213   -0.265845    0.027359
H     2.164987   -1.464759    0.173810    0.728668    0.238136    0.000115
H    -0.093502   -2.020229    0.986766    0.372117   -0.135836    0.043449
H    -1.938267    1.278600   -0.172458   -0.639133   -0.182015   -0.006686
H     2.288060    1.069549   -0.040321   -0.812982    0.615448   -0.073272
H    -0.050103   -2.171364   -0.632393    0.373490   -0.150275    0.011033
13
* Frequency(12)  531.2003
C     1.391240    0.539210   -0.017706   -0.440644   -0.090477   -0.001549
C     1.256256   -0.782992    0.092156    0.444506   -0.098307    0.019108
N    -0.046823   -1.440101    0.116781    0.448064   -0.178698    0.028759
C    -1.299986   -0.627697    0.008124    0.175466    0.093168   -0.005607
N    -1.040693    0.698869   -0.095932   -0.407840    0.137701   -0.024467
C     0.197957    1.405534   -0.119988   -0.518603   -0.245763    0.007321
O    -2.334731   -1.229105    0.026677   -0.001119    0.533736   -0.043988
O     0.180884    2.610755   -0.218817    0.219213   -0.265845    0.027359
H     2.081033   -1.492196    0.173797    0.728668    0.238136    0.000115
H    -0.136376   -2.004579    0.981760    0.372117   -0.135836    0.043449
H    -1.864629    1.299572   -0.171687   -0.639133   -0.182015   -0.006686
H     2.381729    0.998639   -0.031879   -0.812982    0.615448   -0.073272
H    -0.093135   -2.154049   -0.633664    0.373490   -0.150275    0.011033
13
* Frequency(12)  531.2003
C     1.439258    0.549069   -0.017537   -0.440644   -0.090477   -0.001549
C     1.207816   -0.772279    0.090074    0.444506   -0.098307    0.019108
N    -0.095650   -1.420627    0.113647    0.448064   -0.178698    0.028759
C    -1.319107   -0.637850    0.008735    0.175466    0.093168   -0.005607
N    -0.996249    0.683863   -0.093265   -0.407840    0.137701   -0.024467
C     0.254471    1.432316   -0.120786   -0.518603   -0.245763    0.007321
O    -2.334609   -1.287268    0.031471   -0.001119    0.533736   -0.043988
O     0.156996    2.639725   -0.221799    0.219213   -0.265845    0.027359
H     2.001627   -1.518147    0.173784    0.728668    0.238136    0.000115
H    -0.176926   -1.989776    0.977026    0.372117   -0.135836    0.043449
H    -1.794980    1.319406   -0.170959   -0.639133   -0.182015   -0.006686
H     2.470323    0.931572   -0.023894   -0.812982    0.615448   -0.073272
H    -0.133836   -2.137673   -0.634867    0.373490   -0.150275    0.011033
13
* Frequency(12)  531.2003
C     1.479322    0.557295   -0.017397   -0.440644   -0.090477   -0.001549
C     1.167401   -0.763341    0.088336    0.444506   -0.098307    0.019108
N    -0.136389   -1.404380    0.111032    0.448064   -0.178698    0.028759
C    -1.335061   -0.646321    0.009245    0.175466    0.093168   -0.005607
N    -0.959168    0.671343   -0.091041   -0.407840    0.137701   -0.024467
C     0.301623    1.454661   -0.121452   -0.518603   -0.245763    0.007321
O    -2.334507   -1.335796    0.035470   -0.001119    0.533736   -0.043988
O     0.137065    2.663896   -0.224286    0.219213   -0.265845    0.027359
H     1.935376   -1.539799    0.173774    0.728668    0.238136    0.000115
H    -0.210760   -1.977426    0.973075    0.372117   -0.135836    0.043449
H    -1.736869    1.335955   -0.170351   -0.639133   -0.182015   -0.006686
H     2.544240    0.875614   -0.017232   -0.812982    0.615448   -0.073272
H    -0.167794   -2.124010   -0.635870    0.373490   -0.150275    0.011033
13
* Frequency(12)  531.2003
C     1.507090    0.562997   -0.017299   -0.440644   -0.090477   -0.001549
C     1.139389   -0.757146    0.087132    0.444506   -0.098307    0.019108
N    -0.164624   -1.393119    0.109219    0.448064   -0.178698    0.028759
C    -1.346118   -0.652192    0.009598    0.175466    0.093168   -0.005607
N    -0.933467    0.662666   -0.089499   -0.407840    0.137701   -0.024467
C     0.334304    1.470148   -0.121913   -0.518603   -0.245763    0.007321
O    -2.334436   -1.369431    0.038242   -0.001119    0.533736   -0.043988
O     0.123250    2.680649   -0.226010    0.219213   -0.265845    0.027359
H     1.889457   -1.554805    0.173767    0.728668    0.238136    0.000115
H    -0.234210   -1.968866    0.970337    0.372117   -0.135836    0.043449
H    -1.696593    1.347425   -0.169929   -0.639133   -0.182015   -0.006686
H     2.595472    0.836830   -0.012615   -0.812982    0.615448   -0.073272
H    -0.191330   -2.114540   -0.636565    0.373490   -0.150275    0.011033
13
* Frequency(12)  531.2003
C     1.519554    0.565556   -0.017255   -0.440644   -0.090477   -0.001549
C     1.126817   -0.754365    0.086592    0.444506   -0.098307    0.019108
N    -0.177297   -1.388065    0.108406    0.448064   -0.178698    0.028759
C    -1.351081   -0.654827    0.009757    0.175466    0.093168   -0.005607
N    -0.921931    0.658771   -0.088807   -0.407840    0.137701   -0.024467
C     0.348972    1.477099   -0.122120   -0.518603   -0.245763    0.007321
O    -2.334405   -1.384527    0.039486   -0.001119    0.533736   -0.043988
O     0.117050    2.688168   -0.226784    0.219213   -0.265845    0.027359
H     1.868847   -1.561541    0.173763    0.728668    0.238136    0.000115
H    -0.244735   -1.965024    0.969108    0.372117   -0.135836    0.043449
H    -1.678516    1.352574   -0.169740   -0.639133   -0.182015   -0.006686
H     2.618467    0.819423   -0.010543   -0.812982    0.615448   -0.073272
H    -0.201894   -2.110290   -0.636877    0.373490   -0.150275    0.011033
13
* Frequency(12)  531.2003
C     1.515361    0.564695   -0.017270   -0.440644   -0.090477   -0.001549
C     1.131046   -0.755301    0.086774    0.444506   -0.098307    0.019108
N    -0.173034   -1.389765    0.108680    0.448064   -0.178698    0.028759
C    -1.349411   -0.653941    0.009704    0.175466    0.093168   -0.005607
N    -0.925812    0.660081   -0.089040   -0.407840    0.137701   -0.024467
C     0.344038    1.474761   -0.122050   -0.518603   -0.245763    0.007321
O    -2.334415   -1.379448    0.039068   -0.001119    0.533736   -0.043988
O     0.119136    2.685639   -0.226524    0.219213   -0.265845    0.027359
H     1.875780   -1.559275    0.173765    0.728668    0.238136    0.000115
H    -0.241194   -1.966316    0.969522    0.372117   -0.135836    0.043449
H    -1.684597    1.350842   -0.169804   -0.639133   -0.182015   -0.006686
H     2.610732    0.825279   -0.011240   -0.812982    0.615448   -0.073272
H    -0.198341   -2.111720   -0.636772    0.373490   -0.150275    0.011033
13
* Frequency(12)  531.2003
C     1.494967    0.560508   -0.017342   -0.440644   -0.090477   -0.001549
C     1.151619   -0.759851    0.087658    0.444506   -0.098307    0.019108
N    -0.152297   -1.398035    0.110011    0.448064   -0.178698    0.028759
C    -1.341290   -0.649629    0.009444    0.175466    0.093168   -0.005607
N    -0.944687    0.666454   -0.090172   -0.407840    0.137701   -0.024467
C     0.320036    1.463387   -0.121712   -0.518603   -0.245763    0.007321
O    -2.334467   -1.354746    0.037032   -0.001119    0.533736   -0.043988
O     0.129282    2.673335   -0.225258    0.219213   -0.265845    0.027359
H     1.909504   -1.548254    0.173770    0.728668    0.238136    0.000115
H    -0.223972   -1.972603    0.971532    0.372117   -0.135836    0.043449
H    -1.714177    1.342418   -0.170113   -0.639133   -0.182015   -0.006686
H     2.573105    0.853763   -0.014631   -0.812982    0.615448   -0.073272
H    -0.181055   -2.118675   -0.636261    0.373490   -0.150275    0.011033
13
* Frequency(12)  531.2003
C     1.460582    0.553447   -0.017462   -0.440644   -0.090477   -0.001549
C     1.186305   -0.767522    0.089149    0.444506   -0.098307    0.019108
N    -0.117333   -1.411980    0.112255    0.448064   -0.178698    0.028759
C    -1.327598   -0.642358    0.009007    0.175466    0.093168   -0.005607
N    -0.976513    0.677199   -0.092081   -0.407840    0.137701   -0.024467
C     0.279568    1.444209   -0.121140   -0.518603   -0.245763    0.007321
O    -2.334554   -1.313097    0.033600   -0.001119    0.533736   -0.043988
O     0.146388    2.652590   -0.223123    0.219213   -0.265845    0.027359
H     1.966365   -1.529671    0.173779    0.728668    0.238136    0.000115
H    -0.194934   -1.983203    0.974923    0.372117   -0.135836    0.043449
H    -1.764051    1.328215   -0.170635   -0.639133   -0.182015   -0.006686
H     2.509665    0.901788   -0.020348   -0.812982    0.615448   -0.073272
H    -0.151910   -2.130401   -0.635400    0.373490   -0.150275    0.011033
13
* Frequency(12)  531.2003
C     1.415932    0.544280   -0.017619   -0.440644   -0.090477   -0.001549
C     1.231347   -0.777483    0.091085    0.444506   -0.098307    0.019108
N    -0.071931   -1.430087    0.115169    0.448064   -0.178698    0.028759
C    -1.309818   -0.632918    0.008438    0.175466    0.093168   -0.005607
N    -1.017839    0.691153   -0.094561   -0.407840    0.137701   -0.024467
C     0.227018    1.419306   -0.120398   -0.518603   -0.245763    0.007321
O    -2.334668   -1.259013    0.029142   -0.001119    0.533736   -0.043988
O     0.168600    2.625652   -0.220350    0.219213   -0.265845    0.027359
H     2.040201   -1.505541    0.173790    0.728668    0.238136    0.000115
H    -0.157228   -1.996967    0.979326    0.372117   -0.135836    0.043449
H    -1.828814    1.309771   -0.171313   -0.639133   -0.182015   -0.006686
H     2.427286    0.964152   -0.027773   -0.812982    0.615448   -0.073272
H    -0.114064   -2.145629   -0.634282    0.373490   -0.150275    0.011033
13
* Frequency(12)  531.2003
C     1.365855    0.533997   -0.017795   -0.440644   -0.090477   -0.001549
C     1.281863   -0.788655    0.093257    0.444506   -0.098307    0.019108
N    -0.021011   -1.450395    0.118437    0.448064   -0.178698    0.028759
C    -1.289878   -0.622329    0.007801    0.175466    0.093168   -0.005607
N    -1.064188    0.706802   -0.097341   -0.407840    0.137701   -0.024467
C     0.168081    1.391376   -0.119566   -0.518603   -0.245763    0.007321
O    -2.334795   -1.198357    0.024143   -0.001119    0.533736   -0.043988
O     0.193513    2.595440   -0.217241    0.219213   -0.265845    0.027359
H     2.123010   -1.478478    0.173803    0.728668    0.238136    0.000115
H    -0.114939   -2.012404    0.984263    0.372117   -0.135836    0.043449
H    -1.901448    1.289086   -0.172072   -0.639133   -0.182015   -0.006686
H     2.334895    1.034094   -0.036100   -0.812982    0.615448   -0.073272
H    -0.071619   -2.162707   -0.633029    0.373490   -0.150275    0.011033
