13
* (null), Energy   -1000.0000000
C     1.621188    0.403598    0.009016   -0.212729   -0.131262    0.004606
C     1.539018   -0.919147    0.120543    0.075644    0.024402   -0.011057
N     0.234586   -1.584887    0.143046   -0.227401    0.124471   -0.019650
C    -1.040982   -0.751715    0.035244    0.368929   -0.538279    0.070943
N    -0.811196    0.577219   -0.071669   -0.330044    0.358386   -0.039282
C     0.423111    1.261638   -0.096194    0.692029   -0.013208    0.019742
O    -2.084970   -1.326745    0.055920   -0.143352    0.014708   -0.007341
O     0.451027    2.464431   -0.197533   -0.120999   -0.037447    0.000307
H     2.382077   -1.607559    0.201521    0.488552    0.539554   -0.023463
H     0.139969   -2.151905    1.007849    0.430669   -0.162715   -0.098955
H    -1.647994    1.161186   -0.147295   -0.105437    0.708388   -0.074180
H     2.590366    0.904195   -0.008805   -0.631007    0.608467   -0.057071
H     0.188398   -2.293879   -0.614969    0.750614   -0.197830    0.180523
13
* Frequency(26) 1330.5367
C     1.597013    0.388681    0.009539   -0.212729   -0.131262    0.004606
C     1.547614   -0.916374    0.119286    0.075644    0.024402   -0.011057
N     0.208743   -1.570741    0.140813   -0.227401    0.124471   -0.019650
C    -0.999055   -0.812887    0.043307    0.368929   -0.538279    0.070943
N    -0.848704    0.617948   -0.076133   -0.330044    0.358386   -0.039282
C     0.501757    1.260137   -0.093950    0.692029   -0.013208    0.019742
O    -2.101261   -1.325073    0.055086   -0.143352    0.014708   -0.007341
O     0.437277    2.460175   -0.197498   -0.120999   -0.037447    0.000307
H     2.437598   -1.546241    0.198854    0.488552    0.539554   -0.023463
H     0.188912   -2.170396    0.996603    0.430669   -0.162715   -0.098955
H    -1.659977    1.241691   -0.155726   -0.105437    0.708388   -0.074180
H     2.518655    0.973344   -0.015290   -0.631007    0.608467   -0.057071
H     0.273701   -2.316361   -0.594453    0.750614   -0.197830    0.180523
13
* Frequency(26) 1330.5367
C     1.575457    0.375380    0.010006   -0.212729   -0.131262    0.004606
C     1.555279   -0.913901    0.118166    0.075644    0.024402   -0.011057
N     0.185700   -1.558129    0.138822   -0.227401    0.124471   -0.019650
C    -0.961672   -0.867431    0.050495    0.368929   -0.538279    0.070943
N    -0.882147    0.654263   -0.080113   -0.330044    0.358386   -0.039282
C     0.571880    1.258799   -0.091949    0.692029   -0.013208    0.019742
O    -2.115787   -1.323583    0.054342   -0.143352    0.014708   -0.007341
O     0.425016    2.456381   -0.197467   -0.120999   -0.037447    0.000307
H     2.487103   -1.491568    0.196477    0.488552    0.539554   -0.023463
H     0.232552   -2.186884    0.986576    0.430669   -0.162715   -0.098955
H    -1.670660    1.313472   -0.163242   -0.105437    0.708388   -0.074180
H     2.454715    1.035000   -0.021073   -0.631007    0.608467   -0.057071
H     0.349761   -2.336407   -0.576161    0.750614   -0.197830    0.180523
13
* Frequency(26) 1330.5367
C     1.558857    0.365137    0.010365   -0.212729   -0.131262    0.004606
C     1.561182   -0.911997    0.117303    0.075644    0.024402   -0.011057
N     0.167955   -1.548416    0.137288   -0.227401    0.124471   -0.019650
C    -0.932883   -0.909435    0.056031    0.368929   -0.538279    0.070943
N    -0.907902    0.682229   -0.083179   -0.330044    0.358386   -0.039282
C     0.625881    1.257768   -0.090409    0.692029   -0.013208    0.019742
O    -2.126973   -1.322435    0.053769   -0.143352    0.014708   -0.007341
O     0.415574    2.453458   -0.197443   -0.120999   -0.037447    0.000307
H     2.525227   -1.449465    0.194646    0.488552    0.539554   -0.023463
H     0.266159   -2.199581    0.978854    0.430669   -0.162715   -0.098955
H    -1.678888    1.368750   -0.169031   -0.105437    0.708388   -0.074180
H     2.405476    1.082481   -0.025527   -0.631007    0.608467   -0.057071
H     0.408334   -2.351844   -0.562074    0.750614   -0.197830    0.180523
13
* Frequency(26) 1330.5367
C     1.549011    0.359062    0.010579   -0.212729   -0.131262    0.004606
C     1.564683   -0.910868    0.116791    0.075644    0.024402   -0.011057
N     0.157431   -1.542655    0.136379   -0.227401    0.124471   -0.019650
C    -0.915808   -0.934347    0.059315    0.368929   -0.538279    0.070943
N    -0.923177    0.698816   -0.084997   -0.330044    0.358386   -0.039282
C     0.657910    1.257157   -0.089495    0.692029   -0.013208    0.019742
O    -2.133608   -1.321754    0.053430   -0.143352    0.014708   -0.007341
O     0.409974    2.451725   -0.197429   -0.120999   -0.037447    0.000307
H     2.547838   -1.424493    0.193560    0.488552    0.539554   -0.023463
H     0.286091   -2.207112    0.974274    0.430669   -0.162715   -0.098955
H    -1.683768    1.401535   -0.172464   -0.105437    0.708388   -0.074180
H     2.376271    1.110642   -0.028168   -0.631007    0.608467   -0.057071
H     0.443074   -2.361000   -0.553719    0.750614   -0.197830    0.180523
13
* Frequency(26) 1330.5367
C     1.546987    0.357813    0.010622   -0.212729   -0.131262    0.004606
C     1.565403   -0.910636    0.116686    0.075644    0.024402   -0.011057
N     0.155267   -1.541471    0.136192   -0.227401    0.124471   -0.019650
C    -0.912298   -0.939469    0.059990    0.368929   -0.538279    0.070943
N    -0.926317    0.702226   -0.085370   -0.330044    0.358386   -0.039282
C     0.664494    1.257031   -0.089307    0.692029   -0.013208    0.019742
O    -2.134972   -1.321614    0.053360   -0.143352    0.014708   -0.007341
O     0.408822    2.451369   -0.197426   -0.120999   -0.037447    0.000307
H     2.552486   -1.419360    0.193337    0.488552    0.539554   -0.023463
H     0.290188   -2.208660    0.973333    0.430669   -0.162715   -0.098955
H    -1.684771    1.408275   -0.173170   -0.105437    0.708388   -0.074180
H     2.370268    1.116431   -0.028711   -0.631007    0.608467   -0.057071
H     0.450215   -2.362883   -0.552002    0.750614   -0.197830    0.180523
13
* Frequency(26) 1330.5367
C     1.553004    0.361526    0.010492   -0.212729   -0.131262    0.004606
C     1.563263   -0.911326    0.116999    0.075644    0.024402   -0.011057
N     0.161699   -1.544991    0.136748   -0.227401    0.124471   -0.019650
C    -0.922733   -0.924244    0.057983    0.368929   -0.538279    0.070943
N    -0.916982    0.692089   -0.084259   -0.330044    0.358386   -0.039282
C     0.644921    1.257405   -0.089866    0.692029   -0.013208    0.019742
O    -2.130917   -1.322030    0.053567   -0.143352    0.014708   -0.007341
O     0.412245    2.452428   -0.197435   -0.120999   -0.037447    0.000307
H     2.538668   -1.434620    0.194000    0.488552    0.539554   -0.023463
H     0.278007   -2.204058    0.976132    0.430669   -0.162715   -0.098955
H    -1.681789    1.388239   -0.171072   -0.105437    0.708388   -0.074180
H     2.388115    1.099221   -0.027097   -0.631007    0.608467   -0.057071
H     0.428985   -2.357287   -0.557107    0.750614   -0.197830    0.180523
13
* Frequency(26) 1330.5367
C     1.566410    0.369798    0.010202   -0.212729   -0.131262    0.004606
C     1.558496   -0.912864    0.117695    0.075644    0.024402   -0.011057
N     0.176029   -1.552835    0.137986   -0.227401    0.124471   -0.019650
C    -0.945982   -0.890323    0.053513    0.368929   -0.538279    0.070943
N    -0.896184    0.669504   -0.081784   -0.330044    0.358386   -0.039282
C     0.601311    1.258237   -0.091110    0.692029   -0.013208    0.019742
O    -2.121883   -1.322957    0.054030   -0.143352    0.014708   -0.007341
O     0.419870    2.454788   -0.197454   -0.120999   -0.037447    0.000307
H     2.507881   -1.468622    0.195479    0.488552    0.539554   -0.023463
H     0.250868   -2.193804    0.982368    0.430669   -0.162715   -0.098955
H    -1.675145    1.343599   -0.166397   -0.105437    0.708388   -0.074180
H     2.427879    1.060877   -0.023501   -0.631007    0.608467   -0.057071
H     0.381683   -2.344821   -0.568483    0.750614   -0.197830    0.180523
13
* Frequency(26) 1330.5367
C     1.585751    0.381732    0.009783   -0.212729   -0.131262    0.004606
C     1.551619   -0.915082    0.118701    0.075644    0.024402   -0.011057
N     0.196705   -1.564152    0.139773   -0.227401    0.124471   -0.019650
C    -0.979525   -0.841382    0.047062    0.368929   -0.538279    0.070943
N    -0.866176    0.636919   -0.078212   -0.330044    0.358386   -0.039282
C     0.538390    1.259438   -0.092905    0.692029   -0.013208    0.019742
O    -2.108850   -1.324295    0.054697   -0.143352    0.014708   -0.007341
O     0.430871    2.458193   -0.197482   -0.120999   -0.037447    0.000307
H     2.463461   -1.517679    0.197612    0.488552    0.539554   -0.023463
H     0.211710   -2.179010    0.991365    0.430669   -0.162715   -0.098955
H    -1.665558    1.279191   -0.159653   -0.105437    0.708388   -0.074180
H     2.485252    1.005554   -0.018312   -0.631007    0.608467   -0.057071
H     0.313436   -2.326833   -0.584897    0.750614   -0.197830    0.180523
13
* Frequency(26) 1330.5367
C     1.608933    0.396036    0.009281   -0.212729   -0.131262    0.004606
C     1.543376   -0.917741    0.119906    0.075644    0.024402   -0.011057
N     0.221486   -1.577716    0.141914   -0.227401    0.124471   -0.019650
C    -1.019729   -0.782724    0.039331    0.368929   -0.538279    0.070943
N    -0.830210    0.597865   -0.073932   -0.330044    0.358386   -0.039282
C     0.462978    1.260877   -0.095056    0.692029   -0.013208    0.019742
O    -2.093228   -1.325898    0.055497   -0.143352    0.014708   -0.007341
O     0.444057    2.462273   -0.197515   -0.120999   -0.037447    0.000307
H     2.410222   -1.576476    0.200169    0.488552    0.539554   -0.023463
H     0.164779   -2.161278    1.002148    0.430669   -0.162715   -0.098955
H    -1.654068    1.201995   -0.151569   -0.105437    0.708388   -0.074180
H     2.554015    0.939247   -0.012092   -0.631007    0.608467   -0.057071
H     0.231639   -2.305275   -0.604569    0.750614   -0.197830    0.180523
13
* Frequency(26) 1330.5367
C     1.633443    0.411160    0.008751   -0.212729   -0.131262    0.004606
C     1.534660   -0.920553    0.121180    0.075644    0.024402   -0.011057
N     0.247686   -1.592057    0.144178   -0.227401    0.124471   -0.019650
C    -1.062235   -0.720705    0.031158    0.368929   -0.538279    0.070943
N    -0.792183    0.556573   -0.069406   -0.330044    0.358386   -0.039282
C     0.383245    1.262399   -0.097331    0.692029   -0.013208    0.019742
O    -2.076712   -1.327592    0.056343   -0.143352    0.014708   -0.007341
O     0.457998    2.466588   -0.197551   -0.120999   -0.037447    0.000307
H     2.353932   -1.638641    0.202872    0.488552    0.539554   -0.023463
H     0.115159   -2.142531    1.013549    0.430669   -0.162715   -0.098955
H    -1.641920    1.120377   -0.143022   -0.105437    0.708388   -0.074180
H     2.626717    0.869142   -0.005517   -0.631007    0.608467   -0.057071
H     0.145156   -2.282482   -0.625368    0.750614   -0.197830    0.180523
13
* Frequency(26) 1330.5367
C     1.656625    0.425464    0.008249   -0.212729   -0.131262    0.004606
C     1.526417   -0.923212    0.122385    0.075644    0.024402   -0.011057
N     0.272467   -1.605621    0.146319   -0.227401    0.124471   -0.019650
C    -1.102439   -0.662047    0.023427    0.368929   -0.538279    0.070943
N    -0.756217    0.517519   -0.065125   -0.330044    0.358386   -0.039282
C     0.307832    1.263838   -0.099482    0.692029   -0.013208    0.019742
O    -2.061090   -1.329195    0.057143   -0.143352    0.014708   -0.007341
O     0.471184    2.470669   -0.197584   -0.120999   -0.037447    0.000307
H     2.300693   -1.697439    0.205429    0.488552    0.539554   -0.023463
H     0.068227   -2.124799    1.024333    0.430669   -0.162715   -0.098955
H    -1.630430    1.043182   -0.134938   -0.105437    0.708388   -0.074180
H     2.695480    0.802835    0.000702   -0.631007    0.608467   -0.057071
H     0.063359   -2.260924   -0.645041    0.750614   -0.197830    0.180523
13
* Frequency(26) 1330.5367
C     1.675967    0.437399    0.007830   -0.212729   -0.131262    0.004606
C     1.519539   -0.925431    0.123390    0.075644    0.024402   -0.011057
N     0.293143   -1.616938    0.148106   -0.227401    0.124471   -0.019650
C    -1.135982   -0.613106    0.016976    0.368929   -0.538279    0.070943
N    -0.726209    0.484934   -0.061554   -0.330044    0.358386   -0.039282
C     0.244911    1.265039   -0.101277    0.692029   -0.013208    0.019742
O    -2.048056   -1.330532    0.057811   -0.143352    0.014708   -0.007341
O     0.482185    2.474073   -0.197612   -0.120999   -0.037447    0.000307
H     2.256273   -1.746496    0.207563    0.488552    0.539554   -0.023463
H     0.029070   -2.110005    1.033330    0.430669   -0.162715   -0.098955
H    -1.620844    0.978774   -0.128194   -0.105437    0.708388   -0.074180
H     2.752852    0.747512    0.005891   -0.631007    0.608467   -0.057071
H    -0.004888   -2.242937   -0.661454    0.750614   -0.197830    0.180523
13
* Frequency(26) 1330.5367
C     1.689372    0.445670    0.007540   -0.212729   -0.131262    0.004606
C     1.514773   -0.926969    0.124087    0.075644    0.024402   -0.011057
N     0.307473   -1.624782    0.149344   -0.227401    0.124471   -0.019650
C    -1.159231   -0.579185    0.012506    0.368929   -0.538279    0.070943
N    -0.705411    0.462349   -0.059078   -0.330044    0.358386   -0.039282
C     0.201302    1.265872   -0.102521    0.692029   -0.013208    0.019742
O    -2.039022   -1.331459    0.058273   -0.143352    0.014708   -0.007341
O     0.489810    2.476433   -0.197631   -0.120999   -0.037447    0.000307
H     2.225486   -1.780497    0.209041    0.488552    0.539554   -0.023463
H     0.001931   -2.099751    1.039566    0.430669   -0.162715   -0.098955
H    -1.614199    0.934133   -0.123519   -0.105437    0.708388   -0.074180
H     2.792617    0.709168    0.009488   -0.631007    0.608467   -0.057071
H    -0.052190   -2.230470   -0.672830    0.750614   -0.197830    0.180523
13
* Frequency(26) 1330.5367
C     1.695389    0.449383    0.007410   -0.212729   -0.131262    0.004606
C     1.512633   -0.927659    0.124400    0.075644    0.024402   -0.011057
N     0.313905   -1.628303    0.149900   -0.227401    0.124471   -0.019650
C    -1.169666   -0.563961    0.010499    0.368929   -0.538279    0.070943
N    -0.696076    0.452213   -0.057967   -0.330044    0.358386   -0.039282
C     0.181728    1.266245   -0.103080    0.692029   -0.013208    0.019742
O    -2.034968   -1.331875    0.058481   -0.143352    0.014708   -0.007341
O     0.493232    2.477492   -0.197640   -0.120999   -0.037447    0.000307
H     2.211668   -1.795758    0.209705    0.488552    0.539554   -0.023463
H    -0.010250   -2.095149    1.042365    0.430669   -0.162715   -0.098955
H    -1.611217    0.914097   -0.121421   -0.105437    0.708388   -0.074180
H     2.810464    0.691959    0.011102   -0.631007    0.608467   -0.057071
H    -0.073420   -2.224875   -0.677936    0.750614   -0.197830    0.180523
13
* Frequency(26) 1330.5367
C     1.693365    0.448134    0.007453   -0.212729   -0.131262    0.004606
C     1.513353   -0.927427    0.124294    0.075644    0.024402   -0.011057
N     0.311741   -1.627118    0.149713   -0.227401    0.124471   -0.019650
C    -1.166156   -0.569082    0.011174    0.368929   -0.538279    0.070943
N    -0.699216    0.455622   -0.058341   -0.330044    0.358386   -0.039282
C     0.188313    1.266120   -0.102892    0.692029   -0.013208    0.019742
O    -2.036332   -1.331735    0.058411   -0.143352    0.014708   -0.007341
O     0.492081    2.477136   -0.197637   -0.120999   -0.037447    0.000307
H     2.216316   -1.790624    0.209482    0.488552    0.539554   -0.023463
H    -0.006153   -2.096697    1.041423    0.430669   -0.162715   -0.098955
H    -1.612220    0.920837   -0.122127   -0.105437    0.708388   -0.074180
H     2.804460    0.697748    0.010559   -0.631007    0.608467   -0.057071
H    -0.066278   -2.226757   -0.676219    0.750614   -0.197830    0.180523
13
* Frequency(26) 1330.5367
C     1.683520    0.442059    0.007667   -0.212729   -0.131262    0.004606
C     1.516854   -0.926297    0.123783    0.075644    0.024402   -0.011057
N     0.301216   -1.621358    0.148804   -0.227401    0.124471   -0.019650
C    -1.149081   -0.593995    0.014458    0.368929   -0.538279    0.070943
N    -0.714491    0.472209   -0.060159   -0.330044    0.358386   -0.039282
C     0.220341    1.265508   -0.101978    0.692029   -0.013208    0.019742
O    -2.042966   -1.331055    0.058071   -0.143352    0.014708   -0.007341
O     0.486481    2.475403   -0.197623   -0.120999   -0.037447    0.000307
H     2.238927   -1.765653    0.208396    0.488552    0.539554   -0.023463
H     0.013779   -2.104228    1.036843    0.430669   -0.162715   -0.098955
H    -1.617100    0.953622   -0.125560   -0.105437    0.708388   -0.074180
H     2.775256    0.725909    0.007918   -0.631007    0.608467   -0.057071
H    -0.031539   -2.235913   -0.667864    0.750614   -0.197830    0.180523
13
* Frequency(26) 1330.5367
C     1.666920    0.431816    0.008026   -0.212729   -0.131262    0.004606
C     1.522756   -0.924393    0.122920    0.075644    0.024402   -0.011057
N     0.283471   -1.611645    0.147270   -0.227401    0.124471   -0.019650
C    -1.120292   -0.635998    0.019993    0.368929   -0.538279    0.070943
N    -0.740245    0.500175   -0.063224   -0.330044    0.358386   -0.039282
C     0.274343    1.264478   -0.100438    0.692029   -0.013208    0.019742
O    -2.054153   -1.329907    0.057499   -0.143352    0.014708   -0.007341
O     0.477039    2.472481   -0.197599   -0.120999   -0.037447    0.000307
H     2.277051   -1.723549    0.206565    0.488552    0.539554   -0.023463
H     0.047386   -2.116925    1.029121    0.430669   -0.162715   -0.098955
H    -1.625328    1.008901   -0.131349   -0.105437    0.708388   -0.074180
H     2.726016    0.773390    0.003464   -0.631007    0.608467   -0.057071
H     0.027035   -2.251350   -0.653777    0.750614   -0.197830    0.180523
13
* Frequency(26) 1330.5367
C     1.645364    0.418515    0.008493   -0.212729   -0.131262    0.004606
C     1.530421   -0.921920    0.121799    0.075644    0.024402   -0.011057
N     0.260429   -1.599032    0.145279   -0.227401    0.124471   -0.019650
C    -1.082909   -0.690542    0.027182    0.368929   -0.538279    0.070943
N    -0.773689    0.536490   -0.067205   -0.330044    0.358386   -0.039282
C     0.344466    1.263139   -0.098437    0.692029   -0.013208    0.019742
O    -2.068679   -1.328416    0.056755   -0.143352    0.014708   -0.007341
O     0.464778    2.468686   -0.197568   -0.120999   -0.037447    0.000307
H     2.326556   -1.668876    0.204187    0.488552    0.539554   -0.023463
H     0.091026   -2.133413    1.019094    0.430669   -0.162715   -0.098955
H    -1.636012    1.080681   -0.138865   -0.105437    0.708388   -0.074180
H     2.662076    0.835046   -0.002319   -0.631007    0.608467   -0.057071
H     0.103094   -2.271396   -0.635484    0.750614   -0.197830    0.180523
13
* Frequency(26) 1330.5367
C     1.621188    0.403598    0.009016   -0.212729   -0.131262    0.004606
C     1.539018   -0.919147    0.120543    0.075644    0.024402   -0.011057
N     0.234586   -1.584887    0.143046   -0.227401    0.124471   -0.019650
C    -1.040982   -0.751715    0.035244    0.368929   -0.538279    0.070943
N    -0.811196    0.577219   -0.071669   -0.330044    0.358386   -0.039282
C     0.423111    1.261638   -0.096194    0.692029   -0.013208    0.019742
O    -2.084970   -1.326745    0.055920   -0.143352    0.014708   -0.007341
O     0.451027    2.464431   -0.197533   -0.120999   -0.037447    0.000307
H     2.382077   -1.607559    0.201521    0.488552    0.539554   -0.023463
H     0.139969   -2.151905    1.007849    0.430669   -0.162715   -0.098955
H    -1.647994    1.161186   -0.147295   -0.105437    0.708388   -0.074180
H     2.590366    0.904195   -0.008805   -0.631007    0.608467   -0.057071
H     0.188398   -2.293879   -0.614969    0.750614   -0.197830    0.180523
